
---------- Begin Simulation Statistics ----------
final_tick                                   71758664                       # Number of ticks from beginning of simulation (restored from checkpoints and never reset)
host_inst_rate                                 375640                       # Simulator instruction rate (inst/s)
host_mem_usage                                 674148                       # Number of bytes of host memory used
host_op_rate                                   430637                       # Simulator op (including micro ops) rate (op/s)
host_seconds                                     0.03                       # Real time elapsed on the host
host_tick_rate                             2600580162                       # Simulator tick rate (ticks/s)
sim_freq                                 1000000000000                       # Frequency of simulated ticks
sim_insts                                       10308                       # Number of instructions simulated
sim_ops                                         11874                       # Number of ops (including micro ops) simulated
sim_seconds                                  0.000072                       # Number of seconds simulated
sim_ticks                                    71758664                       # Number of ticks simulated
system.cpu.Branches                              2130                       # Number of branches fetched
system.cpu.committedInsts                       10308                       # Number of instructions committed
system.cpu.committedOps                         11874                       # Number of ops (including micro ops) committed
system.cpu.dtb.accesses                             0                       # DTB accesses
system.cpu.dtb.align_faults                         0                       # Number of TLB faults due to alignment restrictions
system.cpu.dtb.domain_faults                        0                       # Number of TLB faults due to domain restrictions
system.cpu.dtb.flush_entries                        0                       # Number of entries that have been flushed from TLB
system.cpu.dtb.flush_tlb                            0                       # Number of times complete TLB was flushed
system.cpu.dtb.flush_tlb_asid                       0                       # Number of times TLB was flushed by ASID
system.cpu.dtb.flush_tlb_mva                        0                       # Number of times TLB was flushed by MVA
system.cpu.dtb.flush_tlb_mva_asid                   0                       # Number of times TLB was flushed by MVA & ASID
system.cpu.dtb.hits                                 0                       # DTB hits
system.cpu.dtb.inst_accesses                        0                       # ITB inst accesses
system.cpu.dtb.inst_hits                            0                       # ITB inst hits
system.cpu.dtb.inst_misses                          0                       # ITB inst misses
system.cpu.dtb.misses                               0                       # DTB misses
system.cpu.dtb.perms_faults                         0                       # Number of TLB faults due to permissions restrictions
system.cpu.dtb.prefetch_faults                      0                       # Number of TLB faults due to prefetch
system.cpu.dtb.read_accesses                        0                       # DTB read accesses
system.cpu.dtb.read_hits                            0                       # DTB read hits
system.cpu.dtb.read_misses                          0                       # DTB read misses
system.cpu.dtb.stage2_mmu.stage2_tlb.accesses            0                       # DTB accesses
system.cpu.dtb.stage2_mmu.stage2_tlb.align_faults            0                       # Number of TLB faults due to alignment restrictions
system.cpu.dtb.stage2_mmu.stage2_tlb.domain_faults            0                       # Number of TLB faults due to domain restrictions
system.cpu.dtb.stage2_mmu.stage2_tlb.flush_entries            0                       # Number of entries that have been flushed from TLB
system.cpu.dtb.stage2_mmu.stage2_tlb.flush_tlb            0                       # Number of times complete TLB was flushed
system.cpu.dtb.stage2_mmu.stage2_tlb.flush_tlb_asid            0                       # Number of times TLB was flushed by ASID
system.cpu.dtb.stage2_mmu.stage2_tlb.flush_tlb_mva            0                       # Number of times TLB was flushed by MVA
system.cpu.dtb.stage2_mmu.stage2_tlb.flush_tlb_mva_asid            0                       # Number of times TLB was flushed by MVA & ASID
system.cpu.dtb.stage2_mmu.stage2_tlb.hits            0                       # DTB hits
system.cpu.dtb.stage2_mmu.stage2_tlb.inst_accesses            0                       # ITB inst accesses
system.cpu.dtb.stage2_mmu.stage2_tlb.inst_hits            0                       # ITB inst hits
system.cpu.dtb.stage2_mmu.stage2_tlb.inst_misses            0                       # ITB inst misses
system.cpu.dtb.stage2_mmu.stage2_tlb.misses            0                       # DTB misses
system.cpu.dtb.stage2_mmu.stage2_tlb.perms_faults            0                       # Number of TLB faults due to permissions restrictions
system.cpu.dtb.stage2_mmu.stage2_tlb.prefetch_faults            0                       # Number of TLB faults due to prefetch
system.cpu.dtb.stage2_mmu.stage2_tlb.read_accesses            0                       # DTB read accesses
system.cpu.dtb.stage2_mmu.stage2_tlb.read_hits            0                       # DTB read hits
system.cpu.dtb.stage2_mmu.stage2_tlb.read_misses            0                       # DTB read misses
system.cpu.dtb.stage2_mmu.stage2_tlb.walker.walkRequestOrigin_Requested::Data            0                       # Table walker requests started/completed, data/inst
system.cpu.dtb.stage2_mmu.stage2_tlb.walker.walkRequestOrigin_Requested::Inst            0                       # Table walker requests started/completed, data/inst
system.cpu.dtb.stage2_mmu.stage2_tlb.walker.walkRequestOrigin_Requested::total            0                       # Table walker requests started/completed, data/inst
system.cpu.dtb.stage2_mmu.stage2_tlb.walker.walkRequestOrigin_Completed::Data            0                       # Table walker requests started/completed, data/inst
system.cpu.dtb.stage2_mmu.stage2_tlb.walker.walkRequestOrigin_Completed::Inst            0                       # Table walker requests started/completed, data/inst
system.cpu.dtb.stage2_mmu.stage2_tlb.walker.walkRequestOrigin_Completed::total            0                       # Table walker requests started/completed, data/inst
system.cpu.dtb.stage2_mmu.stage2_tlb.walker.walkRequestOrigin::total            0                       # Table walker requests started/completed, data/inst
system.cpu.dtb.stage2_mmu.stage2_tlb.walker.walks            0                       # Table walker walks requested
system.cpu.dtb.stage2_mmu.stage2_tlb.write_accesses            0                       # DTB write accesses
system.cpu.dtb.stage2_mmu.stage2_tlb.write_hits            0                       # DTB write hits
system.cpu.dtb.stage2_mmu.stage2_tlb.write_misses            0                       # DTB write misses
system.cpu.dtb.walker.walkRequestOrigin_Requested::Data            0                       # Table walker requests started/completed, data/inst
system.cpu.dtb.walker.walkRequestOrigin_Requested::Inst            0                       # Table walker requests started/completed, data/inst
system.cpu.dtb.walker.walkRequestOrigin_Requested::total            0                       # Table walker requests started/completed, data/inst
system.cpu.dtb.walker.walkRequestOrigin_Completed::Data            0                       # Table walker requests started/completed, data/inst
system.cpu.dtb.walker.walkRequestOrigin_Completed::Inst            0                       # Table walker requests started/completed, data/inst
system.cpu.dtb.walker.walkRequestOrigin_Completed::total            0                       # Table walker requests started/completed, data/inst
system.cpu.dtb.walker.walkRequestOrigin::total            0                       # Table walker requests started/completed, data/inst
system.cpu.dtb.walker.walks                         0                       # Table walker walks requested
system.cpu.dtb.write_accesses                       0                       # DTB write accesses
system.cpu.dtb.write_hits                           0                       # DTB write hits
system.cpu.dtb.write_misses                         0                       # DTB write misses
system.cpu.idle_fraction                     0.000000                       # Percentage of idle cycles
system.cpu.itb.accesses                             0                       # DTB accesses
system.cpu.itb.align_faults                         0                       # Number of TLB faults due to alignment restrictions
system.cpu.itb.domain_faults                        0                       # Number of TLB faults due to domain restrictions
system.cpu.itb.flush_entries                        0                       # Number of entries that have been flushed from TLB
system.cpu.itb.flush_tlb                            0                       # Number of times complete TLB was flushed
system.cpu.itb.flush_tlb_asid                       0                       # Number of times TLB was flushed by ASID
system.cpu.itb.flush_tlb_mva                        0                       # Number of times TLB was flushed by MVA
system.cpu.itb.flush_tlb_mva_asid                   0                       # Number of times TLB was flushed by MVA & ASID
system.cpu.itb.hits                                 0                       # DTB hits
system.cpu.itb.inst_accesses                        0                       # ITB inst accesses
system.cpu.itb.inst_hits                            0                       # ITB inst hits
system.cpu.itb.inst_misses                          0                       # ITB inst misses
system.cpu.itb.misses                               0                       # DTB misses
system.cpu.itb.perms_faults                         0                       # Number of TLB faults due to permissions restrictions
system.cpu.itb.prefetch_faults                      0                       # Number of TLB faults due to prefetch
system.cpu.itb.read_accesses                        0                       # DTB read accesses
system.cpu.itb.read_hits                            0                       # DTB read hits
system.cpu.itb.read_misses                          0                       # DTB read misses
system.cpu.itb.stage2_mmu.stage2_tlb.accesses            0                       # DTB accesses
system.cpu.itb.stage2_mmu.stage2_tlb.align_faults            0                       # Number of TLB faults due to alignment restrictions
system.cpu.itb.stage2_mmu.stage2_tlb.domain_faults            0                       # Number of TLB faults due to domain restrictions
system.cpu.itb.stage2_mmu.stage2_tlb.flush_entries            0                       # Number of entries that have been flushed from TLB
system.cpu.itb.stage2_mmu.stage2_tlb.flush_tlb            0                       # Number of times complete TLB was flushed
system.cpu.itb.stage2_mmu.stage2_tlb.flush_tlb_asid            0                       # Number of times TLB was flushed by ASID
system.cpu.itb.stage2_mmu.stage2_tlb.flush_tlb_mva            0                       # Number of times TLB was flushed by MVA
system.cpu.itb.stage2_mmu.stage2_tlb.flush_tlb_mva_asid            0                       # Number of times TLB was flushed by MVA & ASID
system.cpu.itb.stage2_mmu.stage2_tlb.hits            0                       # DTB hits
system.cpu.itb.stage2_mmu.stage2_tlb.inst_accesses            0                       # ITB inst accesses
system.cpu.itb.stage2_mmu.stage2_tlb.inst_hits            0                       # ITB inst hits
system.cpu.itb.stage2_mmu.stage2_tlb.inst_misses            0                       # ITB inst misses
system.cpu.itb.stage2_mmu.stage2_tlb.misses            0                       # DTB misses
system.cpu.itb.stage2_mmu.stage2_tlb.perms_faults            0                       # Number of TLB faults due to permissions restrictions
system.cpu.itb.stage2_mmu.stage2_tlb.prefetch_faults            0                       # Number of TLB faults due to prefetch
system.cpu.itb.stage2_mmu.stage2_tlb.read_accesses            0                       # DTB read accesses
system.cpu.itb.stage2_mmu.stage2_tlb.read_hits            0                       # DTB read hits
system.cpu.itb.stage2_mmu.stage2_tlb.read_misses            0                       # DTB read misses
system.cpu.itb.stage2_mmu.stage2_tlb.walker.walkRequestOrigin_Requested::Data            0                       # Table walker requests started/completed, data/inst
system.cpu.itb.stage2_mmu.stage2_tlb.walker.walkRequestOrigin_Requested::Inst            0                       # Table walker requests started/completed, data/inst
system.cpu.itb.stage2_mmu.stage2_tlb.walker.walkRequestOrigin_Requested::total            0                       # Table walker requests started/completed, data/inst
system.cpu.itb.stage2_mmu.stage2_tlb.walker.walkRequestOrigin_Completed::Data            0                       # Table walker requests started/completed, data/inst
system.cpu.itb.stage2_mmu.stage2_tlb.walker.walkRequestOrigin_Completed::Inst            0                       # Table walker requests started/completed, data/inst
system.cpu.itb.stage2_mmu.stage2_tlb.walker.walkRequestOrigin_Completed::total            0                       # Table walker requests started/completed, data/inst
system.cpu.itb.stage2_mmu.stage2_tlb.walker.walkRequestOrigin::total            0                       # Table walker requests started/completed, data/inst
system.cpu.itb.stage2_mmu.stage2_tlb.walker.walks            0                       # Table walker walks requested
system.cpu.itb.stage2_mmu.stage2_tlb.write_accesses            0                       # DTB write accesses
system.cpu.itb.stage2_mmu.stage2_tlb.write_hits            0                       # DTB write hits
system.cpu.itb.stage2_mmu.stage2_tlb.write_misses            0                       # DTB write misses
system.cpu.itb.walker.walkRequestOrigin_Requested::Data            0                       # Table walker requests started/completed, data/inst
system.cpu.itb.walker.walkRequestOrigin_Requested::Inst            0                       # Table walker requests started/completed, data/inst
system.cpu.itb.walker.walkRequestOrigin_Requested::total            0                       # Table walker requests started/completed, data/inst
system.cpu.itb.walker.walkRequestOrigin_Completed::Data            0                       # Table walker requests started/completed, data/inst
system.cpu.itb.walker.walkRequestOrigin_Completed::Inst            0                       # Table walker requests started/completed, data/inst
system.cpu.itb.walker.walkRequestOrigin_Completed::total            0                       # Table walker requests started/completed, data/inst
system.cpu.itb.walker.walkRequestOrigin::total            0                       # Table walker requests started/completed, data/inst
system.cpu.itb.walker.walks                         0                       # Table walker walks requested
system.cpu.itb.write_accesses                       0                       # DTB write accesses
system.cpu.itb.write_hits                           0                       # DTB write hits
system.cpu.itb.write_misses                         0                       # DTB write misses
system.cpu.not_idle_fraction                 1.000000                       # Percentage of non-idle cycles
system.cpu.numCycles                            50216                       # number of cpu cycles simulated
system.cpu.numWorkItemsCompleted                    0                       # number of work items this cpu completed
system.cpu.numWorkItemsStarted                      0                       # number of work items this cpu started
system.cpu.num_busy_cycles               50215.999300                       # Number of busy cycles
system.cpu.num_cc_register_reads                40626                       # number of times the CC registers were read
system.cpu.num_cc_register_writes                6963                       # number of times the CC registers were written
system.cpu.num_conditional_control_insts         1516                       # number of instructions that are conditional controls
system.cpu.num_fp_alu_accesses                      0                       # Number of float alu accesses
system.cpu.num_fp_insts                             0                       # number of float instructions
system.cpu.num_fp_register_reads                    0                       # number of times the floating registers were read
system.cpu.num_fp_register_writes                   0                       # number of times the floating registers were written
system.cpu.num_func_calls                         403                       # number of times a function call or return occured
system.cpu.num_idle_cycles                   0.000700                       # Number of idle cycles
system.cpu.num_int_alu_accesses                 10318                       # Number of integer alu accesses
system.cpu.num_int_insts                        10318                       # number of integer instructions
system.cpu.num_int_register_reads               16699                       # number of times the integer registers were read
system.cpu.num_int_register_writes               7097                       # number of times the integer registers were written
system.cpu.num_load_insts                        1739                       # Number of load instructions
system.cpu.num_mem_refs                          3516                       # number of memory refs
system.cpu.num_store_insts                       1777                       # Number of store instructions
system.cpu.num_vec_alu_accesses                     0                       # Number of vector alu accesses
system.cpu.num_vec_insts                            0                       # number of vector instructions
system.cpu.num_vec_register_reads                  50                       # number of times the vector registers were read
system.cpu.num_vec_register_writes                 23                       # number of times the vector registers were written
system.cpu.op_class::No_OpClass                     0      0.00%      0.00% # Class of executed instruction
system.cpu.op_class::IntAlu                      8402     70.08%     70.08% # Class of executed instruction
system.cpu.op_class::IntMult                       50      0.42%     70.50% # Class of executed instruction
system.cpu.op_class::IntDiv                         0      0.00%     70.50% # Class of executed instruction
system.cpu.op_class::FloatAdd                       0      0.00%     70.50% # Class of executed instruction
system.cpu.op_class::FloatCmp                       0      0.00%     70.50% # Class of executed instruction
system.cpu.op_class::FloatCvt                       0      0.00%     70.50% # Class of executed instruction
system.cpu.op_class::FloatMult                      0      0.00%     70.50% # Class of executed instruction
system.cpu.op_class::FloatMultAcc                   0      0.00%     70.50% # Class of executed instruction
system.cpu.op_class::FloatDiv                       0      0.00%     70.50% # Class of executed instruction
system.cpu.op_class::FloatMisc                      0      0.00%     70.50% # Class of executed instruction
system.cpu.op_class::FloatSqrt                      0      0.00%     70.50% # Class of executed instruction
system.cpu.op_class::SimdAdd                        0      0.00%     70.50% # Class of executed instruction
system.cpu.op_class::SimdAddAcc                     0      0.00%     70.50% # Class of executed instruction
system.cpu.op_class::SimdAlu                        0      0.00%     70.50% # Class of executed instruction
system.cpu.op_class::SimdCmp                        0      0.00%     70.50% # Class of executed instruction
system.cpu.op_class::SimdCvt                        0      0.00%     70.50% # Class of executed instruction
system.cpu.op_class::SimdMisc                       0      0.00%     70.50% # Class of executed instruction
system.cpu.op_class::SimdMult                       0      0.00%     70.50% # Class of executed instruction
system.cpu.op_class::SimdMultAcc                    0      0.00%     70.50% # Class of executed instruction
system.cpu.op_class::SimdShift                      0      0.00%     70.50% # Class of executed instruction
system.cpu.op_class::SimdShiftAcc                   0      0.00%     70.50% # Class of executed instruction
system.cpu.op_class::SimdDiv                        0      0.00%     70.50% # Class of executed instruction
system.cpu.op_class::SimdSqrt                       0      0.00%     70.50% # Class of executed instruction
system.cpu.op_class::SimdFloatAdd                   0      0.00%     70.50% # Class of executed instruction
system.cpu.op_class::SimdFloatAlu                   0      0.00%     70.50% # Class of executed instruction
system.cpu.op_class::SimdFloatCmp                   0      0.00%     70.50% # Class of executed instruction
system.cpu.op_class::SimdFloatCvt                   0      0.00%     70.50% # Class of executed instruction
system.cpu.op_class::SimdFloatDiv                   0      0.00%     70.50% # Class of executed instruction
system.cpu.op_class::SimdFloatMisc                 21      0.18%     70.67% # Class of executed instruction
system.cpu.op_class::SimdFloatMult                  0      0.00%     70.67% # Class of executed instruction
system.cpu.op_class::SimdFloatMultAcc               0      0.00%     70.67% # Class of executed instruction
system.cpu.op_class::SimdFloatSqrt                  0      0.00%     70.67% # Class of executed instruction
system.cpu.op_class::SimdReduceAdd                  0      0.00%     70.67% # Class of executed instruction
system.cpu.op_class::SimdReduceAlu                  0      0.00%     70.67% # Class of executed instruction
system.cpu.op_class::SimdReduceCmp                  0      0.00%     70.67% # Class of executed instruction
system.cpu.op_class::SimdFloatReduceAdd             0      0.00%     70.67% # Class of executed instruction
system.cpu.op_class::SimdFloatReduceCmp             0      0.00%     70.67% # Class of executed instruction
system.cpu.op_class::SimdAes                        0      0.00%     70.67% # Class of executed instruction
system.cpu.op_class::SimdAesMix                     0      0.00%     70.67% # Class of executed instruction
system.cpu.op_class::SimdSha1Hash                   0      0.00%     70.67% # Class of executed instruction
system.cpu.op_class::SimdSha1Hash2                  0      0.00%     70.67% # Class of executed instruction
system.cpu.op_class::SimdSha256Hash                 0      0.00%     70.67% # Class of executed instruction
system.cpu.op_class::SimdSha256Hash2                0      0.00%     70.67% # Class of executed instruction
system.cpu.op_class::SimdShaSigma2                  0      0.00%     70.67% # Class of executed instruction
system.cpu.op_class::SimdShaSigma3                  0      0.00%     70.67% # Class of executed instruction
system.cpu.op_class::SimdPredAlu                    0      0.00%     70.67% # Class of executed instruction
system.cpu.op_class::MemRead                     1739     14.50%     85.18% # Class of executed instruction
system.cpu.op_class::MemWrite                    1777     14.82%    100.00% # Class of executed instruction
system.cpu.op_class::FloatMemRead                   0      0.00%    100.00% # Class of executed instruction
system.cpu.op_class::FloatMemWrite                  0      0.00%    100.00% # Class of executed instruction
system.cpu.op_class::IprAccess                      0      0.00%    100.00% # Class of executed instruction
system.cpu.op_class::InstPrefetch                   0      0.00%    100.00% # Class of executed instruction
system.cpu.op_class::total                      11989                       # Class of executed instruction
system.cpu.workload.numSyscalls                    10                       # Number of system calls
system.membus.snoop_filter.hit_multi_requests            2                       # Number of requests hitting in the snoop filter with multiple (>1) holders of the requested data.
system.membus.snoop_filter.hit_multi_snoops            0                       # Number of snoops hitting in the snoop filter with multiple (>1) holders of the requested data.
system.membus.snoop_filter.hit_single_requests           53                       # Number of requests hitting in the snoop filter with a single holder of the requested data.
system.membus.snoop_filter.hit_single_snoops            0                       # Number of snoops hitting in the snoop filter with a single holder of the requested data.
system.membus.snoop_filter.tot_requests           502                       # Total number of requests made to the snoop filter.
system.membus.snoop_filter.tot_snoops               0                       # Total number of snoops made to the snoop filter.
system.membus.pwrStateResidencyTicks::UNDEFINED     71758664                       # Cumulative time (in ticks) in various power states
system.membus.trans_dist::ReadResp                393                       # Transaction distribution
system.membus.trans_dist::WritebackClean           40                       # Transaction distribution
system.membus.trans_dist::ReadExReq                69                       # Transaction distribution
system.membus.trans_dist::ReadExResp               69                       # Transaction distribution
system.membus.trans_dist::ReadCleanReq            294                       # Transaction distribution
system.membus.trans_dist::ReadSharedReq            99                       # Transaction distribution
system.membus.pkt_count_system.cpu.icache.mem_side::system.mem_ctrls.port          628                       # Packet count per connected master and slave (bytes)
system.membus.pkt_count_system.cpu.dcache.mem_side::system.mem_ctrls.port          336                       # Packet count per connected master and slave (bytes)
system.membus.pkt_count::total                    964                       # Packet count per connected master and slave (bytes)
system.membus.pkt_size_system.cpu.icache.mem_side::system.mem_ctrls.port        21376                       # Cumulative packet size per connected master and slave (bytes)
system.membus.pkt_size_system.cpu.dcache.mem_side::system.mem_ctrls.port        10752                       # Cumulative packet size per connected master and slave (bytes)
system.membus.pkt_size::total                   32128                       # Cumulative packet size per connected master and slave (bytes)
system.membus.snoops                                0                       # Total snoops (count)
system.membus.snoopTraffic                          0                       # Total snoop traffic (bytes)
system.membus.snoop_fanout::samples               462                       # Request fanout histogram
system.membus.snoop_fanout::mean             0.032468                       # Request fanout histogram
system.membus.snoop_fanout::stdev            0.177430                       # Request fanout histogram
system.membus.snoop_fanout::underflows              0      0.00%      0.00% # Request fanout histogram
system.membus.snoop_fanout::0                     447     96.75%     96.75% # Request fanout histogram
system.membus.snoop_fanout::1                      15      3.25%    100.00% # Request fanout histogram
system.membus.snoop_fanout::2                       0      0.00%    100.00% # Request fanout histogram
system.membus.snoop_fanout::overflows               0      0.00%    100.00% # Request fanout histogram
system.membus.snoop_fanout::min_value               0                       # Request fanout histogram
system.membus.snoop_fanout::max_value               1                       # Request fanout histogram
system.membus.snoop_fanout::total                 462                       # Request fanout histogram
system.membus.reqLayer0.occupancy              913748                       # Layer occupancy (ticks)
system.membus.reqLayer0.utilization               1.3                       # Layer utilization (%)
system.membus.respLayer1.occupancy            1566314                       # Layer occupancy (ticks)
system.membus.respLayer1.utilization              2.2                       # Layer utilization (%)
system.membus.respLayer2.occupancy             897444                       # Layer occupancy (ticks)
system.membus.respLayer2.utilization              1.3                       # Layer utilization (%)
system.voltage_domain.voltage                       1                       # Voltage in Volts
system.clk_domain.clock                          1000                       # Clock period in ticks
system.cpu_voltage_domain.voltage                   1                       # Voltage in Volts
system.mem_ctrls.pwrStateResidencyTicks::UNDEFINED     71758664                       # Cumulative time (in ticks) in various power states
system.mem_ctrls.bytes_read::.cpu.inst          18816                       # Number of bytes read from this memory
system.mem_ctrls.bytes_read::.cpu.data          10752                       # Number of bytes read from this memory
system.mem_ctrls.bytes_read::total              29568                       # Number of bytes read from this memory
system.mem_ctrls.bytes_inst_read::.cpu.inst        18816                       # Number of instructions bytes read from this memory
system.mem_ctrls.bytes_inst_read::total         18816                       # Number of instructions bytes read from this memory
system.mem_ctrls.num_reads::.cpu.inst             294                       # Number of read requests responded to by this memory
system.mem_ctrls.num_reads::.cpu.data             168                       # Number of read requests responded to by this memory
system.mem_ctrls.num_reads::total                 462                       # Number of read requests responded to by this memory
system.mem_ctrls.bw_read::.cpu.inst         262212240                       # Total read bandwidth from this memory (bytes/s)
system.mem_ctrls.bw_read::.cpu.data         149835566                       # Total read bandwidth from this memory (bytes/s)
system.mem_ctrls.bw_read::total             412047805                       # Total read bandwidth from this memory (bytes/s)
system.mem_ctrls.bw_inst_read::.cpu.inst    262212240                       # Instruction read bandwidth from this memory (bytes/s)
system.mem_ctrls.bw_inst_read::total        262212240                       # Instruction read bandwidth from this memory (bytes/s)
system.mem_ctrls.bw_total::.cpu.inst        262212240                       # Total bandwidth to/from this memory (bytes/s)
system.mem_ctrls.bw_total::.cpu.data        149835566                       # Total bandwidth to/from this memory (bytes/s)
system.mem_ctrls.bw_total::total            412047805                       # Total bandwidth to/from this memory (bytes/s)
system.mem_ctrls.avgPriority_.writebacks::samples        36.00                       # Average QoS priority value for accepted requests
system.mem_ctrls.avgPriority_.cpu.inst::samples       287.00                       # Average QoS priority value for accepted requests
system.mem_ctrls.avgPriority_.cpu.data::samples       166.00                       # Average QoS priority value for accepted requests
system.mem_ctrls.priorityMinLatency      0.000000018750                       # per QoS priority minimum request to response latency (s)
system.mem_ctrls.priorityMaxLatency      0.000093989790                       # per QoS priority maximum request to response latency (s)
system.mem_ctrls.numReadWriteTurnArounds            1                       # Number of turnarounds from READ to WRITE
system.mem_ctrls.numWriteReadTurnArounds            1                       # Number of turnarounds from WRITE to READ
system.mem_ctrls.numStayReadState                 961                       # Number of times bus staying in READ state
system.mem_ctrls.numStayWriteState                 15                       # Number of times bus staying in WRITE state
system.mem_ctrls.readReqs                         462                       # Number of read requests accepted
system.mem_ctrls.writeReqs                         38                       # Number of write requests accepted
system.mem_ctrls.readBursts                       462                       # Number of DRAM read bursts, including those serviced by the write queue
system.mem_ctrls.writeBursts                       38                       # Number of DRAM write bursts, including those merged in the write queue
system.mem_ctrls.servicedByWrQ                      9                       # Number of DRAM read bursts serviced by the write queue
system.mem_ctrls.mergedWrBursts                     2                       # Number of DRAM write bursts merged with an existing one
system.mem_ctrls.neitherReadNorWriteReqs            0                       # Number of requests that are neither read nor write
system.mem_ctrls.perBankRdBursts::0                44                       # Per bank write bursts
system.mem_ctrls.perBankRdBursts::1                 1                       # Per bank write bursts
system.mem_ctrls.perBankRdBursts::2                20                       # Per bank write bursts
system.mem_ctrls.perBankRdBursts::3                32                       # Per bank write bursts
system.mem_ctrls.perBankRdBursts::4                 8                       # Per bank write bursts
system.mem_ctrls.perBankRdBursts::5                24                       # Per bank write bursts
system.mem_ctrls.perBankRdBursts::6                35                       # Per bank write bursts
system.mem_ctrls.perBankRdBursts::7                38                       # Per bank write bursts
system.mem_ctrls.perBankRdBursts::8                99                       # Per bank write bursts
system.mem_ctrls.perBankRdBursts::9                58                       # Per bank write bursts
system.mem_ctrls.perBankRdBursts::10               22                       # Per bank write bursts
system.mem_ctrls.perBankRdBursts::11               51                       # Per bank write bursts
system.mem_ctrls.perBankRdBursts::12                9                       # Per bank write bursts
system.mem_ctrls.perBankRdBursts::13                7                       # Per bank write bursts
system.mem_ctrls.perBankRdBursts::14                5                       # Per bank write bursts
system.mem_ctrls.perBankRdBursts::15                0                       # Per bank write bursts
system.mem_ctrls.perBankWrBursts::0                 6                       # Per bank write bursts
system.mem_ctrls.perBankWrBursts::1                 0                       # Per bank write bursts
system.mem_ctrls.perBankWrBursts::2                 0                       # Per bank write bursts
system.mem_ctrls.perBankWrBursts::3                 1                       # Per bank write bursts
system.mem_ctrls.perBankWrBursts::4                 0                       # Per bank write bursts
system.mem_ctrls.perBankWrBursts::5                 1                       # Per bank write bursts
system.mem_ctrls.perBankWrBursts::6                 0                       # Per bank write bursts
system.mem_ctrls.perBankWrBursts::7                 5                       # Per bank write bursts
system.mem_ctrls.perBankWrBursts::8                 0                       # Per bank write bursts
system.mem_ctrls.perBankWrBursts::9                 0                       # Per bank write bursts
system.mem_ctrls.perBankWrBursts::10                0                       # Per bank write bursts
system.mem_ctrls.perBankWrBursts::11                3                       # Per bank write bursts
system.mem_ctrls.perBankWrBursts::12                0                       # Per bank write bursts
system.mem_ctrls.perBankWrBursts::13                0                       # Per bank write bursts
system.mem_ctrls.perBankWrBursts::14                0                       # Per bank write bursts
system.mem_ctrls.perBankWrBursts::15                0                       # Per bank write bursts
system.mem_ctrls.avgRdQLen                       1.00                       # Average read queue length when enqueuing
system.mem_ctrls.avgWrQLen                       8.32                       # Average write queue length when enqueuing
system.mem_ctrls.totQLat                      3350826                       # Total ticks spent queuing
system.mem_ctrls.totBusLat                    2265000                       # Total ticks spent in databus transfers
system.mem_ctrls.totMemAccLat                11844576                       # Total ticks spent from burst creation until serviced by the DRAM
system.mem_ctrls.avgQLat                      7396.97                       # Average queueing delay per DRAM burst
system.mem_ctrls.avgBusLat                    5000.00                       # Average bus latency per DRAM burst
system.mem_ctrls.avgMemAccLat                26146.97                       # Average memory access latency per DRAM burst
system.mem_ctrls.numRdRetry                         0                       # Number of times read queue was full causing retry
system.mem_ctrls.numWrRetry                         0                       # Number of times write queue was full causing retry
system.mem_ctrls.readRowHits                      336                       # Number of row buffer hits during reads
system.mem_ctrls.writeRowHits                      14                       # Number of row buffer hits during writes
system.mem_ctrls.readRowHitRate                 74.17                       # Row buffer hit rate for reads
system.mem_ctrls.writeRowHitRate                38.89                       # Row buffer hit rate for writes
system.mem_ctrls.readPktSize::0                     0                       # Read request sizes (log2)
system.mem_ctrls.readPktSize::1                     0                       # Read request sizes (log2)
system.mem_ctrls.readPktSize::2                     0                       # Read request sizes (log2)
system.mem_ctrls.readPktSize::3                     0                       # Read request sizes (log2)
system.mem_ctrls.readPktSize::4                     0                       # Read request sizes (log2)
system.mem_ctrls.readPktSize::5                     0                       # Read request sizes (log2)
system.mem_ctrls.readPktSize::6                   462                       # Read request sizes (log2)
system.mem_ctrls.writePktSize::0                    0                       # Write request sizes (log2)
system.mem_ctrls.writePktSize::1                    0                       # Write request sizes (log2)
system.mem_ctrls.writePktSize::2                    0                       # Write request sizes (log2)
system.mem_ctrls.writePktSize::3                    0                       # Write request sizes (log2)
system.mem_ctrls.writePktSize::4                    0                       # Write request sizes (log2)
system.mem_ctrls.writePktSize::5                    0                       # Write request sizes (log2)
system.mem_ctrls.writePktSize::6                   38                       # Write request sizes (log2)
system.mem_ctrls.rdQLenPdf::0                     452                       # What read queue length does an incoming req see
system.mem_ctrls.rdQLenPdf::1                       1                       # What read queue length does an incoming req see
system.mem_ctrls.rdQLenPdf::2                       0                       # What read queue length does an incoming req see
system.mem_ctrls.rdQLenPdf::3                       0                       # What read queue length does an incoming req see
system.mem_ctrls.rdQLenPdf::4                       0                       # What read queue length does an incoming req see
system.mem_ctrls.rdQLenPdf::5                       0                       # What read queue length does an incoming req see
system.mem_ctrls.rdQLenPdf::6                       0                       # What read queue length does an incoming req see
system.mem_ctrls.rdQLenPdf::7                       0                       # What read queue length does an incoming req see
system.mem_ctrls.rdQLenPdf::8                       0                       # What read queue length does an incoming req see
system.mem_ctrls.rdQLenPdf::9                       0                       # What read queue length does an incoming req see
system.mem_ctrls.rdQLenPdf::10                      0                       # What read queue length does an incoming req see
system.mem_ctrls.rdQLenPdf::11                      0                       # What read queue length does an incoming req see
system.mem_ctrls.rdQLenPdf::12                      0                       # What read queue length does an incoming req see
system.mem_ctrls.rdQLenPdf::13                      0                       # What read queue length does an incoming req see
system.mem_ctrls.rdQLenPdf::14                      0                       # What read queue length does an incoming req see
system.mem_ctrls.rdQLenPdf::15                      0                       # What read queue length does an incoming req see
system.mem_ctrls.rdQLenPdf::16                      0                       # What read queue length does an incoming req see
system.mem_ctrls.rdQLenPdf::17                      0                       # What read queue length does an incoming req see
system.mem_ctrls.rdQLenPdf::18                      0                       # What read queue length does an incoming req see
system.mem_ctrls.rdQLenPdf::19                      0                       # What read queue length does an incoming req see
system.mem_ctrls.rdQLenPdf::20                      0                       # What read queue length does an incoming req see
system.mem_ctrls.rdQLenPdf::21                      0                       # What read queue length does an incoming req see
system.mem_ctrls.rdQLenPdf::22                      0                       # What read queue length does an incoming req see
system.mem_ctrls.rdQLenPdf::23                      0                       # What read queue length does an incoming req see
system.mem_ctrls.rdQLenPdf::24                      0                       # What read queue length does an incoming req see
system.mem_ctrls.rdQLenPdf::25                      0                       # What read queue length does an incoming req see
system.mem_ctrls.rdQLenPdf::26                      0                       # What read queue length does an incoming req see
system.mem_ctrls.rdQLenPdf::27                      0                       # What read queue length does an incoming req see
system.mem_ctrls.rdQLenPdf::28                      0                       # What read queue length does an incoming req see
system.mem_ctrls.rdQLenPdf::29                      0                       # What read queue length does an incoming req see
system.mem_ctrls.rdQLenPdf::30                      0                       # What read queue length does an incoming req see
system.mem_ctrls.rdQLenPdf::31                      0                       # What read queue length does an incoming req see
system.mem_ctrls.wrQLenPdf::0                       1                       # What write queue length does an incoming req see
system.mem_ctrls.wrQLenPdf::1                       1                       # What write queue length does an incoming req see
system.mem_ctrls.wrQLenPdf::2                       1                       # What write queue length does an incoming req see
system.mem_ctrls.wrQLenPdf::3                       1                       # What write queue length does an incoming req see
system.mem_ctrls.wrQLenPdf::4                       1                       # What write queue length does an incoming req see
system.mem_ctrls.wrQLenPdf::5                       1                       # What write queue length does an incoming req see
system.mem_ctrls.wrQLenPdf::6                       1                       # What write queue length does an incoming req see
system.mem_ctrls.wrQLenPdf::7                       1                       # What write queue length does an incoming req see
system.mem_ctrls.wrQLenPdf::8                       1                       # What write queue length does an incoming req see
system.mem_ctrls.wrQLenPdf::9                       1                       # What write queue length does an incoming req see
system.mem_ctrls.wrQLenPdf::10                      1                       # What write queue length does an incoming req see
system.mem_ctrls.wrQLenPdf::11                      1                       # What write queue length does an incoming req see
system.mem_ctrls.wrQLenPdf::12                      1                       # What write queue length does an incoming req see
system.mem_ctrls.wrQLenPdf::13                      1                       # What write queue length does an incoming req see
system.mem_ctrls.wrQLenPdf::14                      1                       # What write queue length does an incoming req see
system.mem_ctrls.wrQLenPdf::15                      1                       # What write queue length does an incoming req see
system.mem_ctrls.wrQLenPdf::16                      1                       # What write queue length does an incoming req see
system.mem_ctrls.wrQLenPdf::17                      2                       # What write queue length does an incoming req see
system.mem_ctrls.wrQLenPdf::18                      2                       # What write queue length does an incoming req see
system.mem_ctrls.wrQLenPdf::19                      2                       # What write queue length does an incoming req see
system.mem_ctrls.wrQLenPdf::20                      1                       # What write queue length does an incoming req see
system.mem_ctrls.wrQLenPdf::21                      1                       # What write queue length does an incoming req see
system.mem_ctrls.wrQLenPdf::22                      1                       # What write queue length does an incoming req see
system.mem_ctrls.wrQLenPdf::23                      1                       # What write queue length does an incoming req see
system.mem_ctrls.wrQLenPdf::24                      1                       # What write queue length does an incoming req see
system.mem_ctrls.wrQLenPdf::25                      1                       # What write queue length does an incoming req see
system.mem_ctrls.wrQLenPdf::26                      1                       # What write queue length does an incoming req see
system.mem_ctrls.wrQLenPdf::27                      1                       # What write queue length does an incoming req see
system.mem_ctrls.wrQLenPdf::28                      1                       # What write queue length does an incoming req see
system.mem_ctrls.wrQLenPdf::29                      1                       # What write queue length does an incoming req see
system.mem_ctrls.wrQLenPdf::30                      1                       # What write queue length does an incoming req see
system.mem_ctrls.wrQLenPdf::31                      1                       # What write queue length does an incoming req see
system.mem_ctrls.wrQLenPdf::32                      1                       # What write queue length does an incoming req see
system.mem_ctrls.wrQLenPdf::33                      0                       # What write queue length does an incoming req see
system.mem_ctrls.wrQLenPdf::34                      0                       # What write queue length does an incoming req see
system.mem_ctrls.wrQLenPdf::35                      0                       # What write queue length does an incoming req see
system.mem_ctrls.wrQLenPdf::36                      0                       # What write queue length does an incoming req see
system.mem_ctrls.wrQLenPdf::37                      0                       # What write queue length does an incoming req see
system.mem_ctrls.wrQLenPdf::38                      0                       # What write queue length does an incoming req see
system.mem_ctrls.wrQLenPdf::39                      0                       # What write queue length does an incoming req see
system.mem_ctrls.wrQLenPdf::40                      0                       # What write queue length does an incoming req see
system.mem_ctrls.wrQLenPdf::41                      0                       # What write queue length does an incoming req see
system.mem_ctrls.wrQLenPdf::42                      0                       # What write queue length does an incoming req see
system.mem_ctrls.wrQLenPdf::43                      0                       # What write queue length does an incoming req see
system.mem_ctrls.wrQLenPdf::44                      0                       # What write queue length does an incoming req see
system.mem_ctrls.wrQLenPdf::45                      0                       # What write queue length does an incoming req see
system.mem_ctrls.wrQLenPdf::46                      0                       # What write queue length does an incoming req see
system.mem_ctrls.wrQLenPdf::47                      0                       # What write queue length does an incoming req see
system.mem_ctrls.wrQLenPdf::48                      0                       # What write queue length does an incoming req see
system.mem_ctrls.wrQLenPdf::49                      0                       # What write queue length does an incoming req see
system.mem_ctrls.wrQLenPdf::50                      0                       # What write queue length does an incoming req see
system.mem_ctrls.wrQLenPdf::51                      0                       # What write queue length does an incoming req see
system.mem_ctrls.wrQLenPdf::52                      0                       # What write queue length does an incoming req see
system.mem_ctrls.wrQLenPdf::53                      0                       # What write queue length does an incoming req see
system.mem_ctrls.wrQLenPdf::54                      0                       # What write queue length does an incoming req see
system.mem_ctrls.wrQLenPdf::55                      0                       # What write queue length does an incoming req see
system.mem_ctrls.wrQLenPdf::56                      0                       # What write queue length does an incoming req see
system.mem_ctrls.wrQLenPdf::57                      0                       # What write queue length does an incoming req see
system.mem_ctrls.wrQLenPdf::58                      0                       # What write queue length does an incoming req see
system.mem_ctrls.wrQLenPdf::59                      0                       # What write queue length does an incoming req see
system.mem_ctrls.wrQLenPdf::60                      0                       # What write queue length does an incoming req see
system.mem_ctrls.wrQLenPdf::61                      0                       # What write queue length does an incoming req see
system.mem_ctrls.wrQLenPdf::62                      0                       # What write queue length does an incoming req see
system.mem_ctrls.wrQLenPdf::63                      0                       # What write queue length does an incoming req see
system.mem_ctrls.bytesPerActivate::samples          116                       # Bytes accessed per row activation
system.mem_ctrls.bytesPerActivate::mean    252.137931                       # Bytes accessed per row activation
system.mem_ctrls.bytesPerActivate::gmean   171.620572                       # Bytes accessed per row activation
system.mem_ctrls.bytesPerActivate::stdev   250.271744                       # Bytes accessed per row activation
system.mem_ctrls.bytesPerActivate::0-127           36     31.03%     31.03% # Bytes accessed per row activation
system.mem_ctrls.bytesPerActivate::128-255           40     34.48%     65.52% # Bytes accessed per row activation
system.mem_ctrls.bytesPerActivate::256-383           15     12.93%     78.45% # Bytes accessed per row activation
system.mem_ctrls.bytesPerActivate::384-511           11      9.48%     87.93% # Bytes accessed per row activation
system.mem_ctrls.bytesPerActivate::512-639            2      1.72%     89.66% # Bytes accessed per row activation
system.mem_ctrls.bytesPerActivate::640-767            2      1.72%     91.38% # Bytes accessed per row activation
system.mem_ctrls.bytesPerActivate::768-895            3      2.59%     93.97% # Bytes accessed per row activation
system.mem_ctrls.bytesPerActivate::896-1023            2      1.72%     95.69% # Bytes accessed per row activation
system.mem_ctrls.bytesPerActivate::1024-1151            5      4.31%    100.00% # Bytes accessed per row activation
system.mem_ctrls.bytesPerActivate::total          116                       # Bytes accessed per row activation
system.mem_ctrls.rdPerTurnAround::samples            1                       # Reads before turning the bus around for writes
system.mem_ctrls.rdPerTurnAround::mean            437                       # Reads before turning the bus around for writes
system.mem_ctrls.rdPerTurnAround::gmean    437.000000                       # Reads before turning the bus around for writes
system.mem_ctrls.rdPerTurnAround::stdev           nan                       # Reads before turning the bus around for writes
system.mem_ctrls.rdPerTurnAround::432-447            1    100.00%    100.00% # Reads before turning the bus around for writes
system.mem_ctrls.rdPerTurnAround::total             1                       # Reads before turning the bus around for writes
system.mem_ctrls.wrPerTurnAround::samples            1                       # Writes before turning the bus around for reads
system.mem_ctrls.wrPerTurnAround::mean             16                       # Writes before turning the bus around for reads
system.mem_ctrls.wrPerTurnAround::gmean     16.000000                       # Writes before turning the bus around for reads
system.mem_ctrls.wrPerTurnAround::stdev           nan                       # Writes before turning the bus around for reads
system.mem_ctrls.wrPerTurnAround::16                1    100.00%    100.00% # Writes before turning the bus around for reads
system.mem_ctrls.wrPerTurnAround::total             1                       # Writes before turning the bus around for reads
system.mem_ctrls.bytesReadDRAM                  28992                       # Total number of bytes read from DRAM
system.mem_ctrls.bytesReadWrQ                     576                       # Total number of bytes read from write queue
system.mem_ctrls.bytesWritten                    1024                       # Total number of bytes written to DRAM
system.mem_ctrls.bytesReadSys                   29568                       # Total read bytes from the system interface side
system.mem_ctrls.bytesWrittenSys                 2432                       # Total written bytes from the system interface side
system.mem_ctrls.avgRdBW                       404.02                       # Average DRAM read bandwidth in MiByte/s
system.mem_ctrls.avgWrBW                        14.27                       # Average achieved write bandwidth in MiByte/s
system.mem_ctrls.avgRdBWSys                    412.05                       # Average system read bandwidth in MiByte/s
system.mem_ctrls.avgWrBWSys                     33.89                       # Average system write bandwidth in MiByte/s
system.mem_ctrls.peakBW                      12800.00                       # Theoretical peak bandwidth in MiByte/s
system.mem_ctrls.busUtil                         3.27                       # Data bus utilization in percentage
system.mem_ctrls.busUtilRead                     3.16                       # Data bus utilization in percentage for reads
system.mem_ctrls.busUtilWrite                    0.11                       # Data bus utilization in percentage for writes
system.mem_ctrls.totGap                      71658634                       # Total gap between requests
system.mem_ctrls.avgGap                     143317.27                       # Average gap between requests
system.mem_ctrls.masterReadBytes::.cpu.inst        18368                       # Per-master bytes read from memory
system.mem_ctrls.masterReadBytes::.cpu.data        10624                       # Per-master bytes read from memory
system.mem_ctrls.masterWriteBytes::.writebacks         1024                       # Per-master bytes write to memory
system.mem_ctrls.masterReadRate::.cpu.inst 255969091.063345313072                       # Per-master bytes read from memory rate (Bytes/sec)
system.mem_ctrls.masterReadRate::.cpu.data 148051808.768346071243                       # Per-master bytes read from memory rate (Bytes/sec)
system.mem_ctrls.masterWriteRate::.writebacks 14270053.857189983130                       # Per-master bytes write to memory rate (Bytes/sec)
system.mem_ctrls.masterReadAccesses::.cpu.inst          294                       # Per-master read serviced memory accesses
system.mem_ctrls.masterReadAccesses::.cpu.data          168                       # Per-master read serviced memory accesses
system.mem_ctrls.masterWriteAccesses::.writebacks           38                       # Per-master write serviced memory accesses
system.mem_ctrls.masterReadTotalLat::.cpu.inst      7522106                       # Per-master read total memory access latency
system.mem_ctrls.masterReadTotalLat::.cpu.data      4322470                       # Per-master read total memory access latency
system.mem_ctrls.masterWriteTotalLat::.writebacks    321456493                       # Per-master write total memory access latency
system.mem_ctrls.masterReadAvgLat::.cpu.inst     25585.39                       # Per-master read average memory access latency
system.mem_ctrls.masterReadAvgLat::.cpu.data     25728.99                       # Per-master read average memory access latency
system.mem_ctrls.masterWriteAvgLat::.writebacks   8459381.39                       # Per-master write average memory access latency
system.mem_ctrls.pageHitRate                    71.57                       # Row buffer hit rate, read and write combined
system.mem_ctrls.rank1.actEnergy               506940                       # Energy for activate commands per rank (pJ)
system.mem_ctrls.rank1.preEnergy               265650                       # Energy for precharge commands per rank (pJ)
system.mem_ctrls.rank1.readEnergy             1792140                       # Energy for read commands per rank (pJ)
system.mem_ctrls.rank1.writeEnergy              15660                       # Energy for write commands per rank (pJ)
system.mem_ctrls.rank1.refreshEnergy     5531760.000000                       # Energy for refresh commands per rank (pJ)
system.mem_ctrls.rank1.actBackEnergy         28973670                       # Energy for active background per rank (pJ)
system.mem_ctrls.rank1.preBackEnergy          3156480                       # Energy for precharge background per rank (pJ)
system.mem_ctrls.rank1.actPowerDownEnergy            0                       # Energy for active power-down per rank (pJ)
system.mem_ctrls.rank1.prePowerDownEnergy            0                       # Energy for precharge power-down per rank (pJ)
system.mem_ctrls.rank1.selfRefreshEnergy            0                       # Energy for self refresh per rank (pJ)
system.mem_ctrls.rank1.totalEnergy           40242300                       # Total energy per rank (pJ)
system.mem_ctrls.rank1.averagePower        560.800575                       # Core power per rank (mW)
system.mem_ctrls.rank1.totalIdleTime                0                       # Total Idle time Per DRAM Rank
system.mem_ctrls.rank1.memoryStateTime::IDLE      7941185                       # Time in different power states
system.mem_ctrls.rank1.memoryStateTime::REF      2340000                       # Time in different power states
system.mem_ctrls.rank1.memoryStateTime::SREF            0                       # Time in different power states
system.mem_ctrls.rank1.memoryStateTime::PRE_PDN            0                       # Time in different power states
system.mem_ctrls.rank1.memoryStateTime::ACT     61477479                       # Time in different power states
system.mem_ctrls.rank1.memoryStateTime::ACT_PDN            0                       # Time in different power states
system.mem_ctrls.rank0.actEnergy               342720                       # Energy for activate commands per rank (pJ)
system.mem_ctrls.rank0.preEnergy               174570                       # Energy for precharge commands per rank (pJ)
system.mem_ctrls.rank0.readEnergy             1442280                       # Energy for read commands per rank (pJ)
system.mem_ctrls.rank0.writeEnergy              67860                       # Energy for write commands per rank (pJ)
system.mem_ctrls.rank0.refreshEnergy     5531760.000000                       # Energy for refresh commands per rank (pJ)
system.mem_ctrls.rank0.actBackEnergy         28604310                       # Energy for active background per rank (pJ)
system.mem_ctrls.rank0.preBackEnergy          3467520                       # Energy for precharge background per rank (pJ)
system.mem_ctrls.rank0.actPowerDownEnergy            0                       # Energy for active power-down per rank (pJ)
system.mem_ctrls.rank0.prePowerDownEnergy            0                       # Energy for precharge power-down per rank (pJ)
system.mem_ctrls.rank0.selfRefreshEnergy            0                       # Energy for self refresh per rank (pJ)
system.mem_ctrls.rank0.totalEnergy           39631020                       # Total energy per rank (pJ)
system.mem_ctrls.rank0.averagePower        552.282021                       # Core power per rank (mW)
system.mem_ctrls.rank0.totalIdleTime                0                       # Total Idle time Per DRAM Rank
system.mem_ctrls.rank0.memoryStateTime::IDLE      8764048                       # Time in different power states
system.mem_ctrls.rank0.memoryStateTime::REF      2340000                       # Time in different power states
system.mem_ctrls.rank0.memoryStateTime::SREF            0                       # Time in different power states
system.mem_ctrls.rank0.memoryStateTime::PRE_PDN            0                       # Time in different power states
system.mem_ctrls.rank0.memoryStateTime::ACT     60654616                       # Time in different power states
system.mem_ctrls.rank0.memoryStateTime::ACT_PDN            0                       # Time in different power states
system.cpu_clk_domain.clock                      1429                       # Clock period in ticks
system.cpu.numPwrStateTransitions                   1                       # Number of power state transitions
system.cpu.pwrStateResidencyTicks::ON        71758664                       # Cumulative time (in ticks) in various power states
system.cpu.icache.pwrStateResidencyTicks::UNDEFINED     71758664                       # Cumulative time (in ticks) in various power states
system.cpu.icache.demand_hits::.cpu.inst        11623                       # number of demand (read+write) hits
system.cpu.icache.demand_hits::total            11623                       # number of demand (read+write) hits
system.cpu.icache.overall_hits::.cpu.inst        11623                       # number of overall hits
system.cpu.icache.overall_hits::total           11623                       # number of overall hits
system.cpu.icache.demand_misses::.cpu.inst          294                       # number of demand (read+write) misses
system.cpu.icache.demand_misses::total            294                       # number of demand (read+write) misses
system.cpu.icache.overall_misses::.cpu.inst          294                       # number of overall misses
system.cpu.icache.overall_misses::total           294                       # number of overall misses
system.cpu.icache.demand_miss_latency::.cpu.inst     18402662                       # number of demand (read+write) miss cycles
system.cpu.icache.demand_miss_latency::total     18402662                       # number of demand (read+write) miss cycles
system.cpu.icache.overall_miss_latency::.cpu.inst     18402662                       # number of overall miss cycles
system.cpu.icache.overall_miss_latency::total     18402662                       # number of overall miss cycles
system.cpu.icache.demand_accesses::.cpu.inst        11917                       # number of demand (read+write) accesses
system.cpu.icache.demand_accesses::total        11917                       # number of demand (read+write) accesses
system.cpu.icache.overall_accesses::.cpu.inst        11917                       # number of overall (read+write) accesses
system.cpu.icache.overall_accesses::total        11917                       # number of overall (read+write) accesses
system.cpu.icache.demand_miss_rate::.cpu.inst     0.024671                       # miss rate for demand accesses
system.cpu.icache.demand_miss_rate::total     0.024671                       # miss rate for demand accesses
system.cpu.icache.overall_miss_rate::.cpu.inst     0.024671                       # miss rate for overall accesses
system.cpu.icache.overall_miss_rate::total     0.024671                       # miss rate for overall accesses
system.cpu.icache.demand_avg_miss_latency::.cpu.inst 62594.088435                       # average overall miss latency
system.cpu.icache.demand_avg_miss_latency::total 62594.088435                       # average overall miss latency
system.cpu.icache.overall_avg_miss_latency::.cpu.inst 62594.088435                       # average overall miss latency
system.cpu.icache.overall_avg_miss_latency::total 62594.088435                       # average overall miss latency
system.cpu.icache.blocked_cycles::no_mshrs            0                       # number of cycles access was blocked
system.cpu.icache.blocked_cycles::no_targets            0                       # number of cycles access was blocked
system.cpu.icache.blocked::no_mshrs                 0                       # number of cycles access was blocked
system.cpu.icache.blocked::no_targets               0                       # number of cycles access was blocked
system.cpu.icache.avg_blocked_cycles::no_mshrs          nan                       # average number of cycles each access was blocked
system.cpu.icache.avg_blocked_cycles::no_targets          nan                       # average number of cycles each access was blocked
system.cpu.icache.writebacks::.writebacks           40                       # number of writebacks
system.cpu.icache.writebacks::total                40                       # number of writebacks
system.cpu.icache.demand_mshr_misses::.cpu.inst          294                       # number of demand (read+write) MSHR misses
system.cpu.icache.demand_mshr_misses::total          294                       # number of demand (read+write) MSHR misses
system.cpu.icache.overall_mshr_misses::.cpu.inst          294                       # number of overall MSHR misses
system.cpu.icache.overall_mshr_misses::total          294                       # number of overall MSHR misses
system.cpu.icache.demand_mshr_miss_latency::.cpu.inst     17388012                       # number of demand (read+write) MSHR miss cycles
system.cpu.icache.demand_mshr_miss_latency::total     17388012                       # number of demand (read+write) MSHR miss cycles
system.cpu.icache.overall_mshr_miss_latency::.cpu.inst     17388012                       # number of overall MSHR miss cycles
system.cpu.icache.overall_mshr_miss_latency::total     17388012                       # number of overall MSHR miss cycles
system.cpu.icache.demand_mshr_miss_rate::.cpu.inst     0.024671                       # mshr miss rate for demand accesses
system.cpu.icache.demand_mshr_miss_rate::total     0.024671                       # mshr miss rate for demand accesses
system.cpu.icache.overall_mshr_miss_rate::.cpu.inst     0.024671                       # mshr miss rate for overall accesses
system.cpu.icache.overall_mshr_miss_rate::total     0.024671                       # mshr miss rate for overall accesses
system.cpu.icache.demand_avg_mshr_miss_latency::.cpu.inst 59142.897959                       # average overall mshr miss latency
system.cpu.icache.demand_avg_mshr_miss_latency::total 59142.897959                       # average overall mshr miss latency
system.cpu.icache.overall_avg_mshr_miss_latency::.cpu.inst 59142.897959                       # average overall mshr miss latency
system.cpu.icache.overall_avg_mshr_miss_latency::total 59142.897959                       # average overall mshr miss latency
system.cpu.icache.replacements                     40                       # number of replacements
system.cpu.icache.ReadReq_hits::.cpu.inst        11623                       # number of ReadReq hits
system.cpu.icache.ReadReq_hits::total           11623                       # number of ReadReq hits
system.cpu.icache.ReadReq_misses::.cpu.inst          294                       # number of ReadReq misses
system.cpu.icache.ReadReq_misses::total           294                       # number of ReadReq misses
system.cpu.icache.ReadReq_miss_latency::.cpu.inst     18402662                       # number of ReadReq miss cycles
system.cpu.icache.ReadReq_miss_latency::total     18402662                       # number of ReadReq miss cycles
system.cpu.icache.ReadReq_accesses::.cpu.inst        11917                       # number of ReadReq accesses(hits+misses)
system.cpu.icache.ReadReq_accesses::total        11917                       # number of ReadReq accesses(hits+misses)
system.cpu.icache.ReadReq_miss_rate::.cpu.inst     0.024671                       # miss rate for ReadReq accesses
system.cpu.icache.ReadReq_miss_rate::total     0.024671                       # miss rate for ReadReq accesses
system.cpu.icache.ReadReq_avg_miss_latency::.cpu.inst 62594.088435                       # average ReadReq miss latency
system.cpu.icache.ReadReq_avg_miss_latency::total 62594.088435                       # average ReadReq miss latency
system.cpu.icache.ReadReq_mshr_misses::.cpu.inst          294                       # number of ReadReq MSHR misses
system.cpu.icache.ReadReq_mshr_misses::total          294                       # number of ReadReq MSHR misses
system.cpu.icache.ReadReq_mshr_miss_latency::.cpu.inst     17388012                       # number of ReadReq MSHR miss cycles
system.cpu.icache.ReadReq_mshr_miss_latency::total     17388012                       # number of ReadReq MSHR miss cycles
system.cpu.icache.ReadReq_mshr_miss_rate::.cpu.inst     0.024671                       # mshr miss rate for ReadReq accesses
system.cpu.icache.ReadReq_mshr_miss_rate::total     0.024671                       # mshr miss rate for ReadReq accesses
system.cpu.icache.ReadReq_avg_mshr_miss_latency::.cpu.inst 59142.897959                       # average ReadReq mshr miss latency
system.cpu.icache.ReadReq_avg_mshr_miss_latency::total 59142.897959                       # average ReadReq mshr miss latency
system.cpu.icache.tags.pwrStateResidencyTicks::UNDEFINED     71758664                       # Cumulative time (in ticks) in various power states
system.cpu.icache.tags.tagsinuse           137.623365                       # Cycle average of tags in use
system.cpu.icache.tags.total_refs               11917                       # Total number of references to valid blocks.
system.cpu.icache.tags.sampled_refs               294                       # Sample count of references to valid blocks.
system.cpu.icache.tags.avg_refs             40.534014                       # Average number of references to valid blocks.
system.cpu.icache.tags.warmup_cycle             77000                       # Cycle when the warmup percentage was hit.
system.cpu.icache.tags.occ_blocks::.cpu.inst   137.623365                       # Average occupied blocks per requestor
system.cpu.icache.tags.occ_percent::.cpu.inst     0.268796                       # Average percentage of cache occupancy
system.cpu.icache.tags.occ_percent::total     0.268796                       # Average percentage of cache occupancy
system.cpu.icache.tags.occ_task_id_blocks::1024          254                       # Occupied blocks per task id
system.cpu.icache.tags.age_task_id_blocks_1024::0           48                       # Occupied blocks per task id
system.cpu.icache.tags.age_task_id_blocks_1024::1          206                       # Occupied blocks per task id
system.cpu.icache.tags.occ_task_id_percent::1024     0.496094                       # Percentage of cache occupancy per task id
system.cpu.icache.tags.tag_accesses             24128                       # Number of tag accesses
system.cpu.icache.tags.data_accesses            24128                       # Number of data accesses
system.cpu.dtb.walker.pwrStateResidencyTicks::UNDEFINED     71758664                       # Cumulative time (in ticks) in various power states
system.cpu.dtb.stage2_mmu.stage2_tlb.walker.pwrStateResidencyTicks::UNDEFINED     71758664                       # Cumulative time (in ticks) in various power states
system.cpu.itb.walker.pwrStateResidencyTicks::UNDEFINED     71758664                       # Cumulative time (in ticks) in various power states
system.cpu.itb.stage2_mmu.stage2_tlb.walker.pwrStateResidencyTicks::UNDEFINED     71758664                       # Cumulative time (in ticks) in various power states
system.cpu.dcache.pwrStateResidencyTicks::UNDEFINED     71758664                       # Cumulative time (in ticks) in various power states
system.cpu.dcache.demand_hits::.cpu.data         3224                       # number of demand (read+write) hits
system.cpu.dcache.demand_hits::total             3224                       # number of demand (read+write) hits
system.cpu.dcache.overall_hits::.cpu.data         3245                       # number of overall hits
system.cpu.dcache.overall_hits::total            3245                       # number of overall hits
system.cpu.dcache.demand_misses::.cpu.data          163                       # number of demand (read+write) misses
system.cpu.dcache.demand_misses::total            163                       # number of demand (read+write) misses
system.cpu.dcache.overall_misses::.cpu.data          172                       # number of overall misses
system.cpu.dcache.overall_misses::total           172                       # number of overall misses
system.cpu.dcache.demand_miss_latency::.cpu.data     10221637                       # number of demand (read+write) miss cycles
system.cpu.dcache.demand_miss_latency::total     10221637                       # number of demand (read+write) miss cycles
system.cpu.dcache.overall_miss_latency::.cpu.data     10221637                       # number of overall miss cycles
system.cpu.dcache.overall_miss_latency::total     10221637                       # number of overall miss cycles
system.cpu.dcache.demand_accesses::.cpu.data         3387                       # number of demand (read+write) accesses
system.cpu.dcache.demand_accesses::total         3387                       # number of demand (read+write) accesses
system.cpu.dcache.overall_accesses::.cpu.data         3417                       # number of overall (read+write) accesses
system.cpu.dcache.overall_accesses::total         3417                       # number of overall (read+write) accesses
system.cpu.dcache.demand_miss_rate::.cpu.data     0.048125                       # miss rate for demand accesses
system.cpu.dcache.demand_miss_rate::total     0.048125                       # miss rate for demand accesses
system.cpu.dcache.overall_miss_rate::.cpu.data     0.050337                       # miss rate for overall accesses
system.cpu.dcache.overall_miss_rate::total     0.050337                       # miss rate for overall accesses
system.cpu.dcache.demand_avg_miss_latency::.cpu.data 62709.429448                       # average overall miss latency
system.cpu.dcache.demand_avg_miss_latency::total 62709.429448                       # average overall miss latency
system.cpu.dcache.overall_avg_miss_latency::.cpu.data 59428.122093                       # average overall miss latency
system.cpu.dcache.overall_avg_miss_latency::total 59428.122093                       # average overall miss latency
system.cpu.dcache.blocked_cycles::no_mshrs            0                       # number of cycles access was blocked
system.cpu.dcache.blocked_cycles::no_targets            0                       # number of cycles access was blocked
system.cpu.dcache.blocked::no_mshrs                 0                       # number of cycles access was blocked
system.cpu.dcache.blocked::no_targets               0                       # number of cycles access was blocked
system.cpu.dcache.avg_blocked_cycles::no_mshrs          nan                       # average number of cycles each access was blocked
system.cpu.dcache.avg_blocked_cycles::no_targets          nan                       # average number of cycles each access was blocked
system.cpu.dcache.demand_mshr_hits::.cpu.data            1                       # number of demand (read+write) MSHR hits
system.cpu.dcache.demand_mshr_hits::total            1                       # number of demand (read+write) MSHR hits
system.cpu.dcache.overall_mshr_hits::.cpu.data            1                       # number of overall MSHR hits
system.cpu.dcache.overall_mshr_hits::total            1                       # number of overall MSHR hits
system.cpu.dcache.demand_mshr_misses::.cpu.data          162                       # number of demand (read+write) MSHR misses
system.cpu.dcache.demand_mshr_misses::total          162                       # number of demand (read+write) MSHR misses
system.cpu.dcache.overall_mshr_misses::.cpu.data          168                       # number of overall MSHR misses
system.cpu.dcache.overall_mshr_misses::total          168                       # number of overall MSHR misses
system.cpu.dcache.demand_mshr_miss_latency::.cpu.data      9626593                       # number of demand (read+write) MSHR miss cycles
system.cpu.dcache.demand_mshr_miss_latency::total      9626593                       # number of demand (read+write) MSHR miss cycles
system.cpu.dcache.overall_mshr_miss_latency::.cpu.data      9982982                       # number of overall MSHR miss cycles
system.cpu.dcache.overall_mshr_miss_latency::total      9982982                       # number of overall MSHR miss cycles
system.cpu.dcache.demand_mshr_miss_rate::.cpu.data     0.047830                       # mshr miss rate for demand accesses
system.cpu.dcache.demand_mshr_miss_rate::total     0.047830                       # mshr miss rate for demand accesses
system.cpu.dcache.overall_mshr_miss_rate::.cpu.data     0.049166                       # mshr miss rate for overall accesses
system.cpu.dcache.overall_mshr_miss_rate::total     0.049166                       # mshr miss rate for overall accesses
system.cpu.dcache.demand_avg_mshr_miss_latency::.cpu.data 59423.413580                       # average overall mshr miss latency
system.cpu.dcache.demand_avg_mshr_miss_latency::total 59423.413580                       # average overall mshr miss latency
system.cpu.dcache.overall_avg_mshr_miss_latency::.cpu.data 59422.511905                       # average overall mshr miss latency
system.cpu.dcache.overall_avg_mshr_miss_latency::total 59422.511905                       # average overall mshr miss latency
system.cpu.dcache.replacements                      0                       # number of replacements
system.cpu.dcache.ReadReq_hits::.cpu.data         1571                       # number of ReadReq hits
system.cpu.dcache.ReadReq_hits::total            1571                       # number of ReadReq hits
system.cpu.dcache.ReadReq_misses::.cpu.data           94                       # number of ReadReq misses
system.cpu.dcache.ReadReq_misses::total            94                       # number of ReadReq misses
system.cpu.dcache.ReadReq_miss_latency::.cpu.data      5868903                       # number of ReadReq miss cycles
system.cpu.dcache.ReadReq_miss_latency::total      5868903                       # number of ReadReq miss cycles
system.cpu.dcache.ReadReq_accesses::.cpu.data         1665                       # number of ReadReq accesses(hits+misses)
system.cpu.dcache.ReadReq_accesses::total         1665                       # number of ReadReq accesses(hits+misses)
system.cpu.dcache.ReadReq_miss_rate::.cpu.data     0.056456                       # miss rate for ReadReq accesses
system.cpu.dcache.ReadReq_miss_rate::total     0.056456                       # miss rate for ReadReq accesses
system.cpu.dcache.ReadReq_avg_miss_latency::.cpu.data 62435.138298                       # average ReadReq miss latency
system.cpu.dcache.ReadReq_avg_miss_latency::total 62435.138298                       # average ReadReq miss latency
system.cpu.dcache.ReadReq_mshr_hits::.cpu.data            1                       # number of ReadReq MSHR hits
system.cpu.dcache.ReadReq_mshr_hits::total            1                       # number of ReadReq MSHR hits
system.cpu.dcache.ReadReq_mshr_misses::.cpu.data           93                       # number of ReadReq MSHR misses
system.cpu.dcache.ReadReq_mshr_misses::total           93                       # number of ReadReq MSHR misses
system.cpu.dcache.ReadReq_mshr_miss_latency::.cpu.data      5511452                       # number of ReadReq MSHR miss cycles
system.cpu.dcache.ReadReq_mshr_miss_latency::total      5511452                       # number of ReadReq MSHR miss cycles
system.cpu.dcache.ReadReq_mshr_miss_rate::.cpu.data     0.055856                       # mshr miss rate for ReadReq accesses
system.cpu.dcache.ReadReq_mshr_miss_rate::total     0.055856                       # mshr miss rate for ReadReq accesses
system.cpu.dcache.ReadReq_avg_mshr_miss_latency::.cpu.data 59262.924731                       # average ReadReq mshr miss latency
system.cpu.dcache.ReadReq_avg_mshr_miss_latency::total 59262.924731                       # average ReadReq mshr miss latency
system.cpu.dcache.WriteReq_hits::.cpu.data         1653                       # number of WriteReq hits
system.cpu.dcache.WriteReq_hits::total           1653                       # number of WriteReq hits
system.cpu.dcache.WriteReq_misses::.cpu.data           69                       # number of WriteReq misses
system.cpu.dcache.WriteReq_misses::total           69                       # number of WriteReq misses
system.cpu.dcache.WriteReq_miss_latency::.cpu.data      4352734                       # number of WriteReq miss cycles
system.cpu.dcache.WriteReq_miss_latency::total      4352734                       # number of WriteReq miss cycles
system.cpu.dcache.WriteReq_accesses::.cpu.data         1722                       # number of WriteReq accesses(hits+misses)
system.cpu.dcache.WriteReq_accesses::total         1722                       # number of WriteReq accesses(hits+misses)
system.cpu.dcache.WriteReq_miss_rate::.cpu.data     0.040070                       # miss rate for WriteReq accesses
system.cpu.dcache.WriteReq_miss_rate::total     0.040070                       # miss rate for WriteReq accesses
system.cpu.dcache.WriteReq_avg_miss_latency::.cpu.data 63083.101449                       # average WriteReq miss latency
system.cpu.dcache.WriteReq_avg_miss_latency::total 63083.101449                       # average WriteReq miss latency
system.cpu.dcache.WriteReq_mshr_misses::.cpu.data           69                       # number of WriteReq MSHR misses
system.cpu.dcache.WriteReq_mshr_misses::total           69                       # number of WriteReq MSHR misses
system.cpu.dcache.WriteReq_mshr_miss_latency::.cpu.data      4115141                       # number of WriteReq MSHR miss cycles
system.cpu.dcache.WriteReq_mshr_miss_latency::total      4115141                       # number of WriteReq MSHR miss cycles
system.cpu.dcache.WriteReq_mshr_miss_rate::.cpu.data     0.040070                       # mshr miss rate for WriteReq accesses
system.cpu.dcache.WriteReq_mshr_miss_rate::total     0.040070                       # mshr miss rate for WriteReq accesses
system.cpu.dcache.WriteReq_avg_mshr_miss_latency::.cpu.data 59639.724638                       # average WriteReq mshr miss latency
system.cpu.dcache.WriteReq_avg_mshr_miss_latency::total 59639.724638                       # average WriteReq mshr miss latency
system.cpu.dcache.SoftPFReq_hits::.cpu.data           21                       # number of SoftPFReq hits
system.cpu.dcache.SoftPFReq_hits::total            21                       # number of SoftPFReq hits
system.cpu.dcache.SoftPFReq_misses::.cpu.data            9                       # number of SoftPFReq misses
system.cpu.dcache.SoftPFReq_misses::total            9                       # number of SoftPFReq misses
system.cpu.dcache.SoftPFReq_accesses::.cpu.data           30                       # number of SoftPFReq accesses(hits+misses)
system.cpu.dcache.SoftPFReq_accesses::total           30                       # number of SoftPFReq accesses(hits+misses)
system.cpu.dcache.SoftPFReq_miss_rate::.cpu.data     0.300000                       # miss rate for SoftPFReq accesses
system.cpu.dcache.SoftPFReq_miss_rate::total     0.300000                       # miss rate for SoftPFReq accesses
system.cpu.dcache.SoftPFReq_mshr_misses::.cpu.data            6                       # number of SoftPFReq MSHR misses
system.cpu.dcache.SoftPFReq_mshr_misses::total            6                       # number of SoftPFReq MSHR misses
system.cpu.dcache.SoftPFReq_mshr_miss_latency::.cpu.data       356389                       # number of SoftPFReq MSHR miss cycles
system.cpu.dcache.SoftPFReq_mshr_miss_latency::total       356389                       # number of SoftPFReq MSHR miss cycles
system.cpu.dcache.SoftPFReq_mshr_miss_rate::.cpu.data     0.200000                       # mshr miss rate for SoftPFReq accesses
system.cpu.dcache.SoftPFReq_mshr_miss_rate::total     0.200000                       # mshr miss rate for SoftPFReq accesses
system.cpu.dcache.SoftPFReq_avg_mshr_miss_latency::.cpu.data 59398.166667                       # average SoftPFReq mshr miss latency
system.cpu.dcache.SoftPFReq_avg_mshr_miss_latency::total 59398.166667                       # average SoftPFReq mshr miss latency
system.cpu.dcache.LoadLockedReq_hits::.cpu.data           18                       # number of LoadLockedReq hits
system.cpu.dcache.LoadLockedReq_hits::total           18                       # number of LoadLockedReq hits
system.cpu.dcache.LoadLockedReq_accesses::.cpu.data           18                       # number of LoadLockedReq accesses(hits+misses)
system.cpu.dcache.LoadLockedReq_accesses::total           18                       # number of LoadLockedReq accesses(hits+misses)
system.cpu.dcache.StoreCondReq_hits::.cpu.data           18                       # number of StoreCondReq hits
system.cpu.dcache.StoreCondReq_hits::total           18                       # number of StoreCondReq hits
system.cpu.dcache.StoreCondReq_accesses::.cpu.data           18                       # number of StoreCondReq accesses(hits+misses)
system.cpu.dcache.StoreCondReq_accesses::total           18                       # number of StoreCondReq accesses(hits+misses)
system.cpu.dcache.tags.pwrStateResidencyTicks::UNDEFINED     71758664                       # Cumulative time (in ticks) in various power states
system.cpu.dcache.tags.tagsinuse           101.885058                       # Cycle average of tags in use
system.cpu.dcache.tags.total_refs                3449                       # Total number of references to valid blocks.
system.cpu.dcache.tags.sampled_refs               168                       # Sample count of references to valid blocks.
system.cpu.dcache.tags.avg_refs             20.529762                       # Average number of references to valid blocks.
system.cpu.dcache.tags.warmup_cycle            156000                       # Cycle when the warmup percentage was hit.
system.cpu.dcache.tags.occ_blocks::.cpu.data   101.885058                       # Average occupied blocks per requestor
system.cpu.dcache.tags.occ_percent::.cpu.data     0.099497                       # Average percentage of cache occupancy
system.cpu.dcache.tags.occ_percent::total     0.099497                       # Average percentage of cache occupancy
system.cpu.dcache.tags.occ_task_id_blocks::1024          168                       # Occupied blocks per task id
system.cpu.dcache.tags.age_task_id_blocks_1024::0           12                       # Occupied blocks per task id
system.cpu.dcache.tags.age_task_id_blocks_1024::1          156                       # Occupied blocks per task id
system.cpu.dcache.tags.occ_task_id_percent::1024     0.164062                       # Percentage of cache occupancy per task id
system.cpu.dcache.tags.tag_accesses              7074                       # Number of tag accesses
system.cpu.dcache.tags.data_accesses             7074                       # Number of data accesses

---------- End Simulation Statistics   ----------
