
---------- Begin Simulation Statistics ----------
final_tick                               117879344000                       # Number of ticks from beginning of simulation (restored from checkpoints and never reset)
host_inst_rate                                 366240                       # Simulator instruction rate (inst/s)
host_mem_usage                                 693996                       # Number of bytes of host memory used
host_op_rate                                   370279                       # Simulator op (including micro ops) rate (op/s)
host_seconds                                   273.04                       # Real time elapsed on the host
host_tick_rate                              431721579                       # Simulator tick rate (ticks/s)
sim_freq                                 1000000000000                       # Frequency of simulated ticks
sim_insts                                   100000000                       # Number of instructions simulated
sim_ops                                     101102729                       # Number of ops (including micro ops) simulated
sim_seconds                                  0.117879                       # Number of seconds simulated
sim_ticks                                117879344000                       # Number of ticks simulated
system.cpu.branchPred.BTBCorrect                    0                       # Number of correct BTB predictions (this stat may not work properly.
system.cpu.branchPred.BTBHitPct             84.215194                       # BTB Hit Percentage
system.cpu.branchPred.BTBHits                 4085402                       # Number of BTB hits
system.cpu.branchPred.BTBLookups              4851146                       # Number of BTB lookups
system.cpu.branchPred.RASInCorrect                 19                       # Number of incorrect RAS predictions.
system.cpu.branchPred.condIncorrect            352108                       # Number of conditional branches incorrect
system.cpu.branchPred.condPredicted           5099759                       # Number of conditional branches predicted
system.cpu.branchPred.indirectHits             102860                       # Number of indirect target hits.
system.cpu.branchPred.indirectLookups          676221                       # Number of indirect predictor lookups.
system.cpu.branchPred.indirectMisses           573361                       # Number of indirect misses.
system.cpu.branchPred.lookups                 6506572                       # Number of BP lookups
system.cpu.branchPred.usedRAS                  312013                       # Number of times the RAS was used to get a target.
system.cpu.branchPredindirectMispredicted        37626                       # Number of mispredicted indirect branches.
system.cpu.committedInsts                   100000000                       # Number of instructions committed
system.cpu.committedOps                     101102729                       # Number of ops (including micro ops) committed
system.cpu.cpi                               1.178793                       # CPI: cycles per instruction
system.cpu.discardedOps                        974968                       # Number of ops (including micro ops) which were discarded before commit
system.cpu.dtb.accesses                             0                       # DTB accesses
system.cpu.dtb.align_faults                         0                       # Number of TLB faults due to alignment restrictions
system.cpu.dtb.domain_faults                        0                       # Number of TLB faults due to domain restrictions
system.cpu.dtb.flush_entries                        0                       # Number of entries that have been flushed from TLB
system.cpu.dtb.flush_tlb                            0                       # Number of times complete TLB was flushed
system.cpu.dtb.flush_tlb_asid                       0                       # Number of times TLB was flushed by ASID
system.cpu.dtb.flush_tlb_mva                        0                       # Number of times TLB was flushed by MVA
system.cpu.dtb.flush_tlb_mva_asid                   0                       # Number of times TLB was flushed by MVA & ASID
system.cpu.dtb.hits                                 0                       # DTB hits
system.cpu.dtb.inst_accesses                        0                       # ITB inst accesses
system.cpu.dtb.inst_hits                            0                       # ITB inst hits
system.cpu.dtb.inst_misses                          0                       # ITB inst misses
system.cpu.dtb.misses                               0                       # DTB misses
system.cpu.dtb.perms_faults                         0                       # Number of TLB faults due to permissions restrictions
system.cpu.dtb.prefetch_faults                      0                       # Number of TLB faults due to prefetch
system.cpu.dtb.read_accesses                        0                       # DTB read accesses
system.cpu.dtb.read_hits                            0                       # DTB read hits
system.cpu.dtb.read_misses                          0                       # DTB read misses
system.cpu.dtb.stage2_mmu.stage2_tlb.accesses            0                       # DTB accesses
system.cpu.dtb.stage2_mmu.stage2_tlb.align_faults            0                       # Number of TLB faults due to alignment restrictions
system.cpu.dtb.stage2_mmu.stage2_tlb.domain_faults            0                       # Number of TLB faults due to domain restrictions
system.cpu.dtb.stage2_mmu.stage2_tlb.flush_entries            0                       # Number of entries that have been flushed from TLB
system.cpu.dtb.stage2_mmu.stage2_tlb.flush_tlb            0                       # Number of times complete TLB was flushed
system.cpu.dtb.stage2_mmu.stage2_tlb.flush_tlb_asid            0                       # Number of times TLB was flushed by ASID
system.cpu.dtb.stage2_mmu.stage2_tlb.flush_tlb_mva            0                       # Number of times TLB was flushed by MVA
system.cpu.dtb.stage2_mmu.stage2_tlb.flush_tlb_mva_asid            0                       # Number of times TLB was flushed by MVA & ASID
system.cpu.dtb.stage2_mmu.stage2_tlb.hits            0                       # DTB hits
system.cpu.dtb.stage2_mmu.stage2_tlb.inst_accesses            0                       # ITB inst accesses
system.cpu.dtb.stage2_mmu.stage2_tlb.inst_hits            0                       # ITB inst hits
system.cpu.dtb.stage2_mmu.stage2_tlb.inst_misses            0                       # ITB inst misses
system.cpu.dtb.stage2_mmu.stage2_tlb.misses            0                       # DTB misses
system.cpu.dtb.stage2_mmu.stage2_tlb.perms_faults            0                       # Number of TLB faults due to permissions restrictions
system.cpu.dtb.stage2_mmu.stage2_tlb.prefetch_faults            0                       # Number of TLB faults due to prefetch
system.cpu.dtb.stage2_mmu.stage2_tlb.read_accesses            0                       # DTB read accesses
system.cpu.dtb.stage2_mmu.stage2_tlb.read_hits            0                       # DTB read hits
system.cpu.dtb.stage2_mmu.stage2_tlb.read_misses            0                       # DTB read misses
system.cpu.dtb.stage2_mmu.stage2_tlb.walker.walkRequestOrigin_Requested::Data            0                       # Table walker requests started/completed, data/inst
system.cpu.dtb.stage2_mmu.stage2_tlb.walker.walkRequestOrigin_Requested::Inst            0                       # Table walker requests started/completed, data/inst
system.cpu.dtb.stage2_mmu.stage2_tlb.walker.walkRequestOrigin_Requested::total            0                       # Table walker requests started/completed, data/inst
system.cpu.dtb.stage2_mmu.stage2_tlb.walker.walkRequestOrigin_Completed::Data            0                       # Table walker requests started/completed, data/inst
system.cpu.dtb.stage2_mmu.stage2_tlb.walker.walkRequestOrigin_Completed::Inst            0                       # Table walker requests started/completed, data/inst
system.cpu.dtb.stage2_mmu.stage2_tlb.walker.walkRequestOrigin_Completed::total            0                       # Table walker requests started/completed, data/inst
system.cpu.dtb.stage2_mmu.stage2_tlb.walker.walkRequestOrigin::total            0                       # Table walker requests started/completed, data/inst
system.cpu.dtb.stage2_mmu.stage2_tlb.walker.walks            0                       # Table walker walks requested
system.cpu.dtb.stage2_mmu.stage2_tlb.write_accesses            0                       # DTB write accesses
system.cpu.dtb.stage2_mmu.stage2_tlb.write_hits            0                       # DTB write hits
system.cpu.dtb.stage2_mmu.stage2_tlb.write_misses            0                       # DTB write misses
system.cpu.dtb.walker.walkRequestOrigin_Requested::Data            0                       # Table walker requests started/completed, data/inst
system.cpu.dtb.walker.walkRequestOrigin_Requested::Inst            0                       # Table walker requests started/completed, data/inst
system.cpu.dtb.walker.walkRequestOrigin_Requested::total            0                       # Table walker requests started/completed, data/inst
system.cpu.dtb.walker.walkRequestOrigin_Completed::Data            0                       # Table walker requests started/completed, data/inst
system.cpu.dtb.walker.walkRequestOrigin_Completed::Inst            0                       # Table walker requests started/completed, data/inst
system.cpu.dtb.walker.walkRequestOrigin_Completed::total            0                       # Table walker requests started/completed, data/inst
system.cpu.dtb.walker.walkRequestOrigin::total            0                       # Table walker requests started/completed, data/inst
system.cpu.dtb.walker.walks                         0                       # Table walker walks requested
system.cpu.dtb.write_accesses                       0                       # DTB write accesses
system.cpu.dtb.write_hits                           0                       # DTB write hits
system.cpu.dtb.write_misses                         0                       # DTB write misses
system.cpu.fetch2.amo_instructions                  0                       # Number of memory atomic instructions successfully decoded
system.cpu.fetch2.fp_instructions                   0                       # Number of floating point instructions successfully decoded
system.cpu.fetch2.int_instructions           48950427                       # Number of integer instructions successfully decoded
system.cpu.fetch2.load_instructions          40608471                       # Number of memory load instructions successfully decoded
system.cpu.fetch2.store_instructions          6267369                       # Number of memory store instructions successfully decoded
system.cpu.fetch2.vec_instructions                  0                       # Number of SIMD instructions successfully decoded
system.cpu.idleCycles                         2203656                       # Total number of cycles that the object has spent stopped
system.cpu.ipc                               0.848325                       # IPC: instructions per cycle
system.cpu.itb.accesses                             0                       # DTB accesses
system.cpu.itb.align_faults                         0                       # Number of TLB faults due to alignment restrictions
system.cpu.itb.domain_faults                        0                       # Number of TLB faults due to domain restrictions
system.cpu.itb.flush_entries                        0                       # Number of entries that have been flushed from TLB
system.cpu.itb.flush_tlb                            0                       # Number of times complete TLB was flushed
system.cpu.itb.flush_tlb_asid                       0                       # Number of times TLB was flushed by ASID
system.cpu.itb.flush_tlb_mva                        0                       # Number of times TLB was flushed by MVA
system.cpu.itb.flush_tlb_mva_asid                   0                       # Number of times TLB was flushed by MVA & ASID
system.cpu.itb.hits                                 0                       # DTB hits
system.cpu.itb.inst_accesses                        0                       # ITB inst accesses
system.cpu.itb.inst_hits                            0                       # ITB inst hits
system.cpu.itb.inst_misses                          0                       # ITB inst misses
system.cpu.itb.misses                               0                       # DTB misses
system.cpu.itb.perms_faults                         0                       # Number of TLB faults due to permissions restrictions
system.cpu.itb.prefetch_faults                      0                       # Number of TLB faults due to prefetch
system.cpu.itb.read_accesses                        0                       # DTB read accesses
system.cpu.itb.read_hits                            0                       # DTB read hits
system.cpu.itb.read_misses                          0                       # DTB read misses
system.cpu.itb.stage2_mmu.stage2_tlb.accesses            0                       # DTB accesses
system.cpu.itb.stage2_mmu.stage2_tlb.align_faults            0                       # Number of TLB faults due to alignment restrictions
system.cpu.itb.stage2_mmu.stage2_tlb.domain_faults            0                       # Number of TLB faults due to domain restrictions
system.cpu.itb.stage2_mmu.stage2_tlb.flush_entries            0                       # Number of entries that have been flushed from TLB
system.cpu.itb.stage2_mmu.stage2_tlb.flush_tlb            0                       # Number of times complete TLB was flushed
system.cpu.itb.stage2_mmu.stage2_tlb.flush_tlb_asid            0                       # Number of times TLB was flushed by ASID
system.cpu.itb.stage2_mmu.stage2_tlb.flush_tlb_mva            0                       # Number of times TLB was flushed by MVA
system.cpu.itb.stage2_mmu.stage2_tlb.flush_tlb_mva_asid            0                       # Number of times TLB was flushed by MVA & ASID
system.cpu.itb.stage2_mmu.stage2_tlb.hits            0                       # DTB hits
system.cpu.itb.stage2_mmu.stage2_tlb.inst_accesses            0                       # ITB inst accesses
system.cpu.itb.stage2_mmu.stage2_tlb.inst_hits            0                       # ITB inst hits
system.cpu.itb.stage2_mmu.stage2_tlb.inst_misses            0                       # ITB inst misses
system.cpu.itb.stage2_mmu.stage2_tlb.misses            0                       # DTB misses
system.cpu.itb.stage2_mmu.stage2_tlb.perms_faults            0                       # Number of TLB faults due to permissions restrictions
system.cpu.itb.stage2_mmu.stage2_tlb.prefetch_faults            0                       # Number of TLB faults due to prefetch
system.cpu.itb.stage2_mmu.stage2_tlb.read_accesses            0                       # DTB read accesses
system.cpu.itb.stage2_mmu.stage2_tlb.read_hits            0                       # DTB read hits
system.cpu.itb.stage2_mmu.stage2_tlb.read_misses            0                       # DTB read misses
system.cpu.itb.stage2_mmu.stage2_tlb.walker.walkRequestOrigin_Requested::Data            0                       # Table walker requests started/completed, data/inst
system.cpu.itb.stage2_mmu.stage2_tlb.walker.walkRequestOrigin_Requested::Inst            0                       # Table walker requests started/completed, data/inst
system.cpu.itb.stage2_mmu.stage2_tlb.walker.walkRequestOrigin_Requested::total            0                       # Table walker requests started/completed, data/inst
system.cpu.itb.stage2_mmu.stage2_tlb.walker.walkRequestOrigin_Completed::Data            0                       # Table walker requests started/completed, data/inst
system.cpu.itb.stage2_mmu.stage2_tlb.walker.walkRequestOrigin_Completed::Inst            0                       # Table walker requests started/completed, data/inst
system.cpu.itb.stage2_mmu.stage2_tlb.walker.walkRequestOrigin_Completed::total            0                       # Table walker requests started/completed, data/inst
system.cpu.itb.stage2_mmu.stage2_tlb.walker.walkRequestOrigin::total            0                       # Table walker requests started/completed, data/inst
system.cpu.itb.stage2_mmu.stage2_tlb.walker.walks            0                       # Table walker walks requested
system.cpu.itb.stage2_mmu.stage2_tlb.write_accesses            0                       # DTB write accesses
system.cpu.itb.stage2_mmu.stage2_tlb.write_hits            0                       # DTB write hits
system.cpu.itb.stage2_mmu.stage2_tlb.write_misses            0                       # DTB write misses
system.cpu.itb.walker.walkRequestOrigin_Requested::Data            0                       # Table walker requests started/completed, data/inst
system.cpu.itb.walker.walkRequestOrigin_Requested::Inst            0                       # Table walker requests started/completed, data/inst
system.cpu.itb.walker.walkRequestOrigin_Requested::total            0                       # Table walker requests started/completed, data/inst
system.cpu.itb.walker.walkRequestOrigin_Completed::Data            0                       # Table walker requests started/completed, data/inst
system.cpu.itb.walker.walkRequestOrigin_Completed::Inst            0                       # Table walker requests started/completed, data/inst
system.cpu.itb.walker.walkRequestOrigin_Completed::total            0                       # Table walker requests started/completed, data/inst
system.cpu.itb.walker.walkRequestOrigin::total            0                       # Table walker requests started/completed, data/inst
system.cpu.itb.walker.walks                         0                       # Table walker walks requested
system.cpu.itb.write_accesses                       0                       # DTB write accesses
system.cpu.itb.write_hits                           0                       # DTB write hits
system.cpu.itb.write_misses                         0                       # DTB write misses
system.cpu.numCycles                        117879344                       # number of cpu cycles simulated
system.cpu.numFetchSuspends                         0                       # Number of times Execute suspended instruction fetching
system.cpu.numWorkItemsCompleted                    0                       # number of work items this cpu completed
system.cpu.numWorkItemsStarted                      0                       # number of work items this cpu started
system.cpu.op_class_0::No_OpClass                   0      0.00%      0.00% # Class of committed instruction
system.cpu.op_class_0::IntAlu                55115655     54.51%     54.51% # Class of committed instruction
system.cpu.op_class_0::IntMult                 167845      0.17%     54.68% # Class of committed instruction
system.cpu.op_class_0::IntDiv                       0      0.00%     54.68% # Class of committed instruction
system.cpu.op_class_0::FloatAdd                     0      0.00%     54.68% # Class of committed instruction
system.cpu.op_class_0::FloatCmp                     0      0.00%     54.68% # Class of committed instruction
system.cpu.op_class_0::FloatCvt                     0      0.00%     54.68% # Class of committed instruction
system.cpu.op_class_0::FloatMult                    0      0.00%     54.68% # Class of committed instruction
system.cpu.op_class_0::FloatMultAcc                 0      0.00%     54.68% # Class of committed instruction
system.cpu.op_class_0::FloatDiv                     0      0.00%     54.68% # Class of committed instruction
system.cpu.op_class_0::FloatMisc                    0      0.00%     54.68% # Class of committed instruction
system.cpu.op_class_0::FloatSqrt                    0      0.00%     54.68% # Class of committed instruction
system.cpu.op_class_0::SimdAdd                    380      0.00%     54.68% # Class of committed instruction
system.cpu.op_class_0::SimdAddAcc                   0      0.00%     54.68% # Class of committed instruction
system.cpu.op_class_0::SimdAlu                    470      0.00%     54.68% # Class of committed instruction
system.cpu.op_class_0::SimdCmp                    382      0.00%     54.68% # Class of committed instruction
system.cpu.op_class_0::SimdCvt                      0      0.00%     54.68% # Class of committed instruction
system.cpu.op_class_0::SimdMisc                    53      0.00%     54.68% # Class of committed instruction
system.cpu.op_class_0::SimdMult                     0      0.00%     54.68% # Class of committed instruction
system.cpu.op_class_0::SimdMultAcc                  0      0.00%     54.68% # Class of committed instruction
system.cpu.op_class_0::SimdShift                    0      0.00%     54.68% # Class of committed instruction
system.cpu.op_class_0::SimdShiftAcc                 0      0.00%     54.68% # Class of committed instruction
system.cpu.op_class_0::SimdDiv                      0      0.00%     54.68% # Class of committed instruction
system.cpu.op_class_0::SimdSqrt                     0      0.00%     54.68% # Class of committed instruction
system.cpu.op_class_0::SimdFloatAdd            267609      0.26%     54.95% # Class of committed instruction
system.cpu.op_class_0::SimdFloatAlu                 0      0.00%     54.95% # Class of committed instruction
system.cpu.op_class_0::SimdFloatCmp            259630      0.26%     55.20% # Class of committed instruction
system.cpu.op_class_0::SimdFloatCvt            161456      0.16%     55.36% # Class of committed instruction
system.cpu.op_class_0::SimdFloatDiv             54308      0.05%     55.42% # Class of committed instruction
system.cpu.op_class_0::SimdFloatMisc           483618      0.48%     55.90% # Class of committed instruction
system.cpu.op_class_0::SimdFloatMult            33524      0.03%     55.93% # Class of committed instruction
system.cpu.op_class_0::SimdFloatMultAcc         11115      0.01%     55.94% # Class of committed instruction
system.cpu.op_class_0::SimdFloatSqrt                0      0.00%     55.94% # Class of committed instruction
system.cpu.op_class_0::SimdReduceAdd                0      0.00%     55.94% # Class of committed instruction
system.cpu.op_class_0::SimdReduceAlu                0      0.00%     55.94% # Class of committed instruction
system.cpu.op_class_0::SimdReduceCmp                0      0.00%     55.94% # Class of committed instruction
system.cpu.op_class_0::SimdFloatReduceAdd            0      0.00%     55.94% # Class of committed instruction
system.cpu.op_class_0::SimdFloatReduceCmp            0      0.00%     55.94% # Class of committed instruction
system.cpu.op_class_0::SimdAes                      0      0.00%     55.94% # Class of committed instruction
system.cpu.op_class_0::SimdAesMix                   0      0.00%     55.94% # Class of committed instruction
system.cpu.op_class_0::SimdSha1Hash                 0      0.00%     55.94% # Class of committed instruction
system.cpu.op_class_0::SimdSha1Hash2                0      0.00%     55.94% # Class of committed instruction
system.cpu.op_class_0::SimdSha256Hash               0      0.00%     55.94% # Class of committed instruction
system.cpu.op_class_0::SimdSha256Hash2              0      0.00%     55.94% # Class of committed instruction
system.cpu.op_class_0::SimdShaSigma2                0      0.00%     55.94% # Class of committed instruction
system.cpu.op_class_0::SimdShaSigma3                0      0.00%     55.94% # Class of committed instruction
system.cpu.op_class_0::SimdPredAlu                  0      0.00%     55.94% # Class of committed instruction
system.cpu.op_class_0::MemRead               38167638     37.75%     93.69% # Class of committed instruction
system.cpu.op_class_0::MemWrite               6379046      6.31%    100.00% # Class of committed instruction
system.cpu.op_class_0::FloatMemRead                 0      0.00%    100.00% # Class of committed instruction
system.cpu.op_class_0::FloatMemWrite                0      0.00%    100.00% # Class of committed instruction
system.cpu.op_class_0::IprAccess                    0      0.00%    100.00% # Class of committed instruction
system.cpu.op_class_0::InstPrefetch                 0      0.00%    100.00% # Class of committed instruction
system.cpu.op_class_0::total                101102729                       # Class of committed instruction
system.cpu.tickCycles                       115675688                       # Number of cycles that the object actually ticked
system.cpu.workload.numSyscalls                    32                       # Number of system calls
system.membus.snoop_filter.hit_multi_requests            0                       # Number of requests hitting in the snoop filter with multiple (>1) holders of the requested data.
system.membus.snoop_filter.hit_multi_snoops            0                       # Number of snoops hitting in the snoop filter with multiple (>1) holders of the requested data.
system.membus.snoop_filter.hit_single_requests            0                       # Number of requests hitting in the snoop filter with a single holder of the requested data.
system.membus.snoop_filter.hit_single_snoops            0                       # Number of snoops hitting in the snoop filter with a single holder of the requested data.
system.membus.snoop_filter.tot_requests          2942                       # Total number of requests made to the snoop filter.
system.membus.snoop_filter.tot_snoops               0                       # Total number of snoops made to the snoop filter.
system.tol2bus.snoop_filter.hit_multi_requests          572                       # Number of requests hitting in the snoop filter with multiple (>1) holders of the requested data.
system.tol2bus.snoop_filter.hit_multi_snoops            0                       # Number of snoops hitting in the snoop filter with multiple (>1) holders of the requested data.
system.tol2bus.snoop_filter.hit_single_requests        17794                       # Number of requests hitting in the snoop filter with a single holder of the requested data.
system.tol2bus.snoop_filter.hit_single_snoops            0                       # Number of snoops hitting in the snoop filter with a single holder of the requested data.
system.tol2bus.snoop_filter.tot_requests        36840                       # Total number of requests made to the snoop filter.
system.tol2bus.snoop_filter.tot_snoops              0                       # Total number of snoops made to the snoop filter.
system.membus.pwrStateResidencyTicks::UNDEFINED 117879344000                       # Cumulative time (in ticks) in various power states
system.membus.trans_dist::ReadResp               1097                       # Transaction distribution
system.membus.trans_dist::ReadExReq              1845                       # Transaction distribution
system.membus.trans_dist::ReadExResp             1845                       # Transaction distribution
system.membus.trans_dist::ReadSharedReq          1097                       # Transaction distribution
system.membus.pkt_count_system.l2.mem_side::system.mem_ctrls.port         5884                       # Packet count per connected master and slave (bytes)
system.membus.pkt_count::total                   5884                       # Packet count per connected master and slave (bytes)
system.membus.pkt_size_system.l2.mem_side::system.mem_ctrls.port       376576                       # Cumulative packet size per connected master and slave (bytes)
system.membus.pkt_size::total                  376576                       # Cumulative packet size per connected master and slave (bytes)
system.membus.snoops                                0                       # Total snoops (count)
system.membus.snoopTraffic                          0                       # Total snoop traffic (bytes)
system.membus.snoop_fanout::samples              2942                       # Request fanout histogram
system.membus.snoop_fanout::mean                    0                       # Request fanout histogram
system.membus.snoop_fanout::stdev                   0                       # Request fanout histogram
system.membus.snoop_fanout::underflows              0      0.00%      0.00% # Request fanout histogram
system.membus.snoop_fanout::0                    2942    100.00%    100.00% # Request fanout histogram
system.membus.snoop_fanout::1                       0      0.00%    100.00% # Request fanout histogram
system.membus.snoop_fanout::overflows               0      0.00%    100.00% # Request fanout histogram
system.membus.snoop_fanout::min_value               0                       # Request fanout histogram
system.membus.snoop_fanout::max_value               0                       # Request fanout histogram
system.membus.snoop_fanout::total                2942                       # Request fanout histogram
system.membus.respLayer1.occupancy           27583250                       # Layer occupancy (ticks)
system.membus.respLayer1.utilization              0.0                       # Layer utilization (%)
system.membus.reqLayer0.occupancy             2942000                       # Layer occupancy (ticks)
system.membus.reqLayer0.utilization               0.0                       # Layer utilization (%)
system.tol2bus.pwrStateResidencyTicks::UNDEFINED 117879344000                       # Cumulative time (in ticks) in various power states
system.tol2bus.trans_dist::ReadResp              8690                       # Transaction distribution
system.tol2bus.trans_dist::WritebackDirty        12069                       # Transaction distribution
system.tol2bus.trans_dist::WritebackClean         4955                       # Transaction distribution
system.tol2bus.trans_dist::CleanEvict             756                       # Transaction distribution
system.tol2bus.trans_dist::ReadExReq            10370                       # Transaction distribution
system.tol2bus.trans_dist::ReadExResp           10370                       # Transaction distribution
system.tol2bus.trans_dist::ReadCleanReq          5211                       # Transaction distribution
system.tol2bus.trans_dist::ReadSharedReq         3479                       # Transaction distribution
system.tol2bus.pkt_count_system.cpu.icache.mem_side::system.l2.cpu_side        15377                       # Packet count per connected master and slave (bytes)
system.tol2bus.pkt_count_system.cpu.dcache.mem_side::system.l2.cpu_side        40523                       # Packet count per connected master and slave (bytes)
system.tol2bus.pkt_count::total                 55900                       # Packet count per connected master and slave (bytes)
system.tol2bus.pkt_size_system.cpu.icache.mem_side::system.l2.cpu_side      1301248                       # Cumulative packet size per connected master and slave (bytes)
system.tol2bus.pkt_size_system.cpu.dcache.mem_side::system.l2.cpu_side      3317504                       # Cumulative packet size per connected master and slave (bytes)
system.tol2bus.pkt_size::total                4618752                       # Cumulative packet size per connected master and slave (bytes)
system.tol2bus.snoops                               0                       # Total snoops (count)
system.tol2bus.snoopTraffic                         0                       # Total snoop traffic (bytes)
system.tol2bus.snoop_fanout::samples            19060                       # Request fanout histogram
system.tol2bus.snoop_fanout::mean            0.030745                       # Request fanout histogram
system.tol2bus.snoop_fanout::stdev           0.172631                       # Request fanout histogram
system.tol2bus.snoop_fanout::underflows             0      0.00%      0.00% # Request fanout histogram
system.tol2bus.snoop_fanout::0                  18474     96.93%     96.93% # Request fanout histogram
system.tol2bus.snoop_fanout::1                    586      3.07%    100.00% # Request fanout histogram
system.tol2bus.snoop_fanout::2                      0      0.00%    100.00% # Request fanout histogram
system.tol2bus.snoop_fanout::overflows              0      0.00%    100.00% # Request fanout histogram
system.tol2bus.snoop_fanout::min_value              0                       # Request fanout histogram
system.tol2bus.snoop_fanout::max_value              1                       # Request fanout histogram
system.tol2bus.snoop_fanout::total              19060                       # Request fanout histogram
system.tol2bus.reqLayer0.occupancy          104936000                       # Layer occupancy (ticks)
system.tol2bus.reqLayer0.utilization              0.1                       # Layer utilization (%)
system.tol2bus.respLayer1.occupancy          69251993                       # Layer occupancy (ticks)
system.tol2bus.respLayer1.utilization             0.1                       # Layer utilization (%)
system.tol2bus.respLayer0.occupancy          26056998                       # Layer occupancy (ticks)
system.tol2bus.respLayer0.utilization             0.0                       # Layer utilization (%)
system.voltage_domain.voltage                       1                       # Voltage in Volts
system.clk_domain.clock                          1000                       # Clock period in ticks
system.l2.pwrStateResidencyTicks::UNDEFINED 117879344000                       # Cumulative time (in ticks) in various power states
system.l2.demand_hits::.cpu.inst                 4415                       # number of demand (read+write) hits
system.l2.demand_hits::.cpu.data                11694                       # number of demand (read+write) hits
system.l2.demand_hits::total                    16109                       # number of demand (read+write) hits
system.l2.overall_hits::.cpu.inst                4415                       # number of overall hits
system.l2.overall_hits::.cpu.data               11694                       # number of overall hits
system.l2.overall_hits::total                   16109                       # number of overall hits
system.l2.demand_misses::.cpu.inst                796                       # number of demand (read+write) misses
system.l2.demand_misses::.cpu.data               2155                       # number of demand (read+write) misses
system.l2.demand_misses::total                   2951                       # number of demand (read+write) misses
system.l2.overall_misses::.cpu.inst               796                       # number of overall misses
system.l2.overall_misses::.cpu.data              2155                       # number of overall misses
system.l2.overall_misses::total                  2951                       # number of overall misses
system.l2.demand_miss_latency::.cpu.inst     82648000                       # number of demand (read+write) miss cycles
system.l2.demand_miss_latency::.cpu.data    231028000                       # number of demand (read+write) miss cycles
system.l2.demand_miss_latency::total        313676000                       # number of demand (read+write) miss cycles
system.l2.overall_miss_latency::.cpu.inst     82648000                       # number of overall miss cycles
system.l2.overall_miss_latency::.cpu.data    231028000                       # number of overall miss cycles
system.l2.overall_miss_latency::total       313676000                       # number of overall miss cycles
system.l2.demand_accesses::.cpu.inst             5211                       # number of demand (read+write) accesses
system.l2.demand_accesses::.cpu.data            13849                       # number of demand (read+write) accesses
system.l2.demand_accesses::total                19060                       # number of demand (read+write) accesses
system.l2.overall_accesses::.cpu.inst            5211                       # number of overall (read+write) accesses
system.l2.overall_accesses::.cpu.data           13849                       # number of overall (read+write) accesses
system.l2.overall_accesses::total               19060                       # number of overall (read+write) accesses
system.l2.demand_miss_rate::.cpu.inst        0.152754                       # miss rate for demand accesses
system.l2.demand_miss_rate::.cpu.data        0.155607                       # miss rate for demand accesses
system.l2.demand_miss_rate::total            0.154827                       # miss rate for demand accesses
system.l2.overall_miss_rate::.cpu.inst       0.152754                       # miss rate for overall accesses
system.l2.overall_miss_rate::.cpu.data       0.155607                       # miss rate for overall accesses
system.l2.overall_miss_rate::total           0.154827                       # miss rate for overall accesses
system.l2.demand_avg_miss_latency::.cpu.inst 103829.145729                       # average overall miss latency
system.l2.demand_avg_miss_latency::.cpu.data 107205.568445                       # average overall miss latency
system.l2.demand_avg_miss_latency::total 106294.815317                       # average overall miss latency
system.l2.overall_avg_miss_latency::.cpu.inst 103829.145729                       # average overall miss latency
system.l2.overall_avg_miss_latency::.cpu.data 107205.568445                       # average overall miss latency
system.l2.overall_avg_miss_latency::total 106294.815317                       # average overall miss latency
system.l2.blocked_cycles::no_mshrs                  0                       # number of cycles access was blocked
system.l2.blocked_cycles::no_targets                0                       # number of cycles access was blocked
system.l2.blocked::no_mshrs                         0                       # number of cycles access was blocked
system.l2.blocked::no_targets                       0                       # number of cycles access was blocked
system.l2.avg_blocked_cycles::no_mshrs            nan                       # average number of cycles each access was blocked
system.l2.avg_blocked_cycles::no_targets          nan                       # average number of cycles each access was blocked
system.l2.demand_mshr_hits::.cpu.inst               2                       # number of demand (read+write) MSHR hits
system.l2.demand_mshr_hits::.cpu.data               7                       # number of demand (read+write) MSHR hits
system.l2.demand_mshr_hits::total                   9                       # number of demand (read+write) MSHR hits
system.l2.overall_mshr_hits::.cpu.inst              2                       # number of overall MSHR hits
system.l2.overall_mshr_hits::.cpu.data              7                       # number of overall MSHR hits
system.l2.overall_mshr_hits::total                  9                       # number of overall MSHR hits
system.l2.demand_mshr_misses::.cpu.inst           794                       # number of demand (read+write) MSHR misses
system.l2.demand_mshr_misses::.cpu.data          2148                       # number of demand (read+write) MSHR misses
system.l2.demand_mshr_misses::total              2942                       # number of demand (read+write) MSHR misses
system.l2.overall_mshr_misses::.cpu.inst          794                       # number of overall MSHR misses
system.l2.overall_mshr_misses::.cpu.data         2148                       # number of overall MSHR misses
system.l2.overall_mshr_misses::total             2942                       # number of overall MSHR misses
system.l2.demand_mshr_miss_latency::.cpu.inst     66642000                       # number of demand (read+write) MSHR miss cycles
system.l2.demand_mshr_miss_latency::.cpu.data    187473000                       # number of demand (read+write) MSHR miss cycles
system.l2.demand_mshr_miss_latency::total    254115000                       # number of demand (read+write) MSHR miss cycles
system.l2.overall_mshr_miss_latency::.cpu.inst     66642000                       # number of overall MSHR miss cycles
system.l2.overall_mshr_miss_latency::.cpu.data    187473000                       # number of overall MSHR miss cycles
system.l2.overall_mshr_miss_latency::total    254115000                       # number of overall MSHR miss cycles
system.l2.demand_mshr_miss_rate::.cpu.inst     0.152370                       # mshr miss rate for demand accesses
system.l2.demand_mshr_miss_rate::.cpu.data     0.155101                       # mshr miss rate for demand accesses
system.l2.demand_mshr_miss_rate::total       0.154355                       # mshr miss rate for demand accesses
system.l2.overall_mshr_miss_rate::.cpu.inst     0.152370                       # mshr miss rate for overall accesses
system.l2.overall_mshr_miss_rate::.cpu.data     0.155101                       # mshr miss rate for overall accesses
system.l2.overall_mshr_miss_rate::total      0.154355                       # mshr miss rate for overall accesses
system.l2.demand_avg_mshr_miss_latency::.cpu.inst 83931.989924                       # average overall mshr miss latency
system.l2.demand_avg_mshr_miss_latency::.cpu.data 87277.932961                       # average overall mshr miss latency
system.l2.demand_avg_mshr_miss_latency::total 86374.915024                       # average overall mshr miss latency
system.l2.overall_avg_mshr_miss_latency::.cpu.inst 83931.989924                       # average overall mshr miss latency
system.l2.overall_avg_mshr_miss_latency::.cpu.data 87277.932961                       # average overall mshr miss latency
system.l2.overall_avg_mshr_miss_latency::total 86374.915024                       # average overall mshr miss latency
system.l2.replacements                              0                       # number of replacements
system.l2.WritebackDirty_hits::.writebacks        12069                       # number of WritebackDirty hits
system.l2.WritebackDirty_hits::total            12069                       # number of WritebackDirty hits
system.l2.WritebackDirty_accesses::.writebacks        12069                       # number of WritebackDirty accesses(hits+misses)
system.l2.WritebackDirty_accesses::total        12069                       # number of WritebackDirty accesses(hits+misses)
system.l2.WritebackClean_hits::.writebacks         4622                       # number of WritebackClean hits
system.l2.WritebackClean_hits::total             4622                       # number of WritebackClean hits
system.l2.WritebackClean_accesses::.writebacks         4622                       # number of WritebackClean accesses(hits+misses)
system.l2.WritebackClean_accesses::total         4622                       # number of WritebackClean accesses(hits+misses)
system.l2.ReadExReq_hits::.cpu.data              8525                       # number of ReadExReq hits
system.l2.ReadExReq_hits::total                  8525                       # number of ReadExReq hits
system.l2.ReadExReq_misses::.cpu.data            1845                       # number of ReadExReq misses
system.l2.ReadExReq_misses::total                1845                       # number of ReadExReq misses
system.l2.ReadExReq_miss_latency::.cpu.data    196824000                       # number of ReadExReq miss cycles
system.l2.ReadExReq_miss_latency::total     196824000                       # number of ReadExReq miss cycles
system.l2.ReadExReq_accesses::.cpu.data         10370                       # number of ReadExReq accesses(hits+misses)
system.l2.ReadExReq_accesses::total             10370                       # number of ReadExReq accesses(hits+misses)
system.l2.ReadExReq_miss_rate::.cpu.data     0.177917                       # miss rate for ReadExReq accesses
system.l2.ReadExReq_miss_rate::total         0.177917                       # miss rate for ReadExReq accesses
system.l2.ReadExReq_avg_miss_latency::.cpu.data 106679.674797                       # average ReadExReq miss latency
system.l2.ReadExReq_avg_miss_latency::total 106679.674797                       # average ReadExReq miss latency
system.l2.ReadExReq_mshr_misses::.cpu.data         1845                       # number of ReadExReq MSHR misses
system.l2.ReadExReq_mshr_misses::total           1845                       # number of ReadExReq MSHR misses
system.l2.ReadExReq_mshr_miss_latency::.cpu.data    159924000                       # number of ReadExReq MSHR miss cycles
system.l2.ReadExReq_mshr_miss_latency::total    159924000                       # number of ReadExReq MSHR miss cycles
system.l2.ReadExReq_mshr_miss_rate::.cpu.data     0.177917                       # mshr miss rate for ReadExReq accesses
system.l2.ReadExReq_mshr_miss_rate::total     0.177917                       # mshr miss rate for ReadExReq accesses
system.l2.ReadExReq_avg_mshr_miss_latency::.cpu.data 86679.674797                       # average ReadExReq mshr miss latency
system.l2.ReadExReq_avg_mshr_miss_latency::total 86679.674797                       # average ReadExReq mshr miss latency
system.l2.ReadCleanReq_hits::.cpu.inst           4415                       # number of ReadCleanReq hits
system.l2.ReadCleanReq_hits::total               4415                       # number of ReadCleanReq hits
system.l2.ReadCleanReq_misses::.cpu.inst          796                       # number of ReadCleanReq misses
system.l2.ReadCleanReq_misses::total              796                       # number of ReadCleanReq misses
system.l2.ReadCleanReq_miss_latency::.cpu.inst     82648000                       # number of ReadCleanReq miss cycles
system.l2.ReadCleanReq_miss_latency::total     82648000                       # number of ReadCleanReq miss cycles
system.l2.ReadCleanReq_accesses::.cpu.inst         5211                       # number of ReadCleanReq accesses(hits+misses)
system.l2.ReadCleanReq_accesses::total           5211                       # number of ReadCleanReq accesses(hits+misses)
system.l2.ReadCleanReq_miss_rate::.cpu.inst     0.152754                       # miss rate for ReadCleanReq accesses
system.l2.ReadCleanReq_miss_rate::total      0.152754                       # miss rate for ReadCleanReq accesses
system.l2.ReadCleanReq_avg_miss_latency::.cpu.inst 103829.145729                       # average ReadCleanReq miss latency
system.l2.ReadCleanReq_avg_miss_latency::total 103829.145729                       # average ReadCleanReq miss latency
system.l2.ReadCleanReq_mshr_hits::.cpu.inst            2                       # number of ReadCleanReq MSHR hits
system.l2.ReadCleanReq_mshr_hits::total             2                       # number of ReadCleanReq MSHR hits
system.l2.ReadCleanReq_mshr_misses::.cpu.inst          794                       # number of ReadCleanReq MSHR misses
system.l2.ReadCleanReq_mshr_misses::total          794                       # number of ReadCleanReq MSHR misses
system.l2.ReadCleanReq_mshr_miss_latency::.cpu.inst     66642000                       # number of ReadCleanReq MSHR miss cycles
system.l2.ReadCleanReq_mshr_miss_latency::total     66642000                       # number of ReadCleanReq MSHR miss cycles
system.l2.ReadCleanReq_mshr_miss_rate::.cpu.inst     0.152370                       # mshr miss rate for ReadCleanReq accesses
system.l2.ReadCleanReq_mshr_miss_rate::total     0.152370                       # mshr miss rate for ReadCleanReq accesses
system.l2.ReadCleanReq_avg_mshr_miss_latency::.cpu.inst 83931.989924                       # average ReadCleanReq mshr miss latency
system.l2.ReadCleanReq_avg_mshr_miss_latency::total 83931.989924                       # average ReadCleanReq mshr miss latency
system.l2.ReadSharedReq_hits::.cpu.data          3169                       # number of ReadSharedReq hits
system.l2.ReadSharedReq_hits::total              3169                       # number of ReadSharedReq hits
system.l2.ReadSharedReq_misses::.cpu.data          310                       # number of ReadSharedReq misses
system.l2.ReadSharedReq_misses::total             310                       # number of ReadSharedReq misses
system.l2.ReadSharedReq_miss_latency::.cpu.data     34204000                       # number of ReadSharedReq miss cycles
system.l2.ReadSharedReq_miss_latency::total     34204000                       # number of ReadSharedReq miss cycles
system.l2.ReadSharedReq_accesses::.cpu.data         3479                       # number of ReadSharedReq accesses(hits+misses)
system.l2.ReadSharedReq_accesses::total          3479                       # number of ReadSharedReq accesses(hits+misses)
system.l2.ReadSharedReq_miss_rate::.cpu.data     0.089106                       # miss rate for ReadSharedReq accesses
system.l2.ReadSharedReq_miss_rate::total     0.089106                       # miss rate for ReadSharedReq accesses
system.l2.ReadSharedReq_avg_miss_latency::.cpu.data 110335.483871                       # average ReadSharedReq miss latency
system.l2.ReadSharedReq_avg_miss_latency::total 110335.483871                       # average ReadSharedReq miss latency
system.l2.ReadSharedReq_mshr_hits::.cpu.data            7                       # number of ReadSharedReq MSHR hits
system.l2.ReadSharedReq_mshr_hits::total            7                       # number of ReadSharedReq MSHR hits
system.l2.ReadSharedReq_mshr_misses::.cpu.data          303                       # number of ReadSharedReq MSHR misses
system.l2.ReadSharedReq_mshr_misses::total          303                       # number of ReadSharedReq MSHR misses
system.l2.ReadSharedReq_mshr_miss_latency::.cpu.data     27549000                       # number of ReadSharedReq MSHR miss cycles
system.l2.ReadSharedReq_mshr_miss_latency::total     27549000                       # number of ReadSharedReq MSHR miss cycles
system.l2.ReadSharedReq_mshr_miss_rate::.cpu.data     0.087094                       # mshr miss rate for ReadSharedReq accesses
system.l2.ReadSharedReq_mshr_miss_rate::total     0.087094                       # mshr miss rate for ReadSharedReq accesses
system.l2.ReadSharedReq_avg_mshr_miss_latency::.cpu.data 90920.792079                       # average ReadSharedReq mshr miss latency
system.l2.ReadSharedReq_avg_mshr_miss_latency::total 90920.792079                       # average ReadSharedReq mshr miss latency
system.l2.tags.pwrStateResidencyTicks::UNDEFINED 117879344000                       # Cumulative time (in ticks) in various power states
system.l2.tags.tagsinuse                  2844.022145                       # Cycle average of tags in use
system.l2.tags.total_refs                       36259                       # Total number of references to valid blocks.
system.l2.tags.sampled_refs                      2942                       # Sample count of references to valid blocks.
system.l2.tags.avg_refs                     12.324609                       # Average number of references to valid blocks.
system.l2.tags.warmup_cycle                     92000                       # Cycle when the warmup percentage was hit.
system.l2.tags.occ_blocks::.cpu.inst       791.350600                       # Average occupied blocks per requestor
system.l2.tags.occ_blocks::.cpu.data      2052.671544                       # Average occupied blocks per requestor
system.l2.tags.occ_percent::.cpu.inst        0.024150                       # Average percentage of cache occupancy
system.l2.tags.occ_percent::.cpu.data        0.062643                       # Average percentage of cache occupancy
system.l2.tags.occ_percent::total            0.086793                       # Average percentage of cache occupancy
system.l2.tags.occ_task_id_blocks::1024          2942                       # Occupied blocks per task id
system.l2.tags.age_task_id_blocks_1024::4         2942                       # Occupied blocks per task id
system.l2.tags.occ_task_id_percent::1024     0.089783                       # Percentage of cache occupancy per task id
system.l2.tags.tag_accesses                    583230                       # Number of tag accesses
system.l2.tags.data_accesses                   583230                       # Number of data accesses
system.cpu_voltage_domain.voltage                   1                       # Voltage in Volts
system.mem_ctrls.pwrStateResidencyTicks::UNDEFINED 117879344000                       # Cumulative time (in ticks) in various power states
system.mem_ctrls.bytes_read::.cpu.inst         101632                       # Number of bytes read from this memory
system.mem_ctrls.bytes_read::.cpu.data         274944                       # Number of bytes read from this memory
system.mem_ctrls.bytes_read::total             376576                       # Number of bytes read from this memory
system.mem_ctrls.bytes_inst_read::.cpu.inst       101632                       # Number of instructions bytes read from this memory
system.mem_ctrls.bytes_inst_read::total        101632                       # Number of instructions bytes read from this memory
system.mem_ctrls.num_reads::.cpu.inst             794                       # Number of read requests responded to by this memory
system.mem_ctrls.num_reads::.cpu.data            2148                       # Number of read requests responded to by this memory
system.mem_ctrls.num_reads::total                2942                       # Number of read requests responded to by this memory
system.mem_ctrls.bw_read::.cpu.inst            862170                       # Total read bandwidth from this memory (bytes/s)
system.mem_ctrls.bw_read::.cpu.data           2332419                       # Total read bandwidth from this memory (bytes/s)
system.mem_ctrls.bw_read::total               3194589                       # Total read bandwidth from this memory (bytes/s)
system.mem_ctrls.bw_inst_read::.cpu.inst       862170                       # Instruction read bandwidth from this memory (bytes/s)
system.mem_ctrls.bw_inst_read::total           862170                       # Instruction read bandwidth from this memory (bytes/s)
system.mem_ctrls.bw_total::.cpu.inst           862170                       # Total bandwidth to/from this memory (bytes/s)
system.mem_ctrls.bw_total::.cpu.data          2332419                       # Total bandwidth to/from this memory (bytes/s)
system.mem_ctrls.bw_total::total              3194589                       # Total bandwidth to/from this memory (bytes/s)
system.mem_ctrls.avgPriority_.cpu.inst::samples      1588.00                       # Average QoS priority value for accepted requests
system.mem_ctrls.avgPriority_.cpu.data::samples      4296.00                       # Average QoS priority value for accepted requests
system.mem_ctrls.priorityMinLatency      0.000000018750                       # per QoS priority minimum request to response latency (s)
system.mem_ctrls.priorityMaxLatency      0.000000572000                       # per QoS priority maximum request to response latency (s)
system.mem_ctrls.numReadWriteTurnArounds            0                       # Number of turnarounds from READ to WRITE
system.mem_ctrls.numWriteReadTurnArounds            0                       # Number of turnarounds from WRITE to READ
system.mem_ctrls.numStayReadState               39099                       # Number of times bus staying in READ state
system.mem_ctrls.numStayWriteState                  0                       # Number of times bus staying in WRITE state
system.mem_ctrls.readReqs                        2942                       # Number of read requests accepted
system.mem_ctrls.writeReqs                          0                       # Number of write requests accepted
system.mem_ctrls.readBursts                      5884                       # Number of DRAM read bursts, including those serviced by the write queue
system.mem_ctrls.writeBursts                        0                       # Number of DRAM write bursts, including those merged in the write queue
system.mem_ctrls.servicedByWrQ                      0                       # Number of DRAM read bursts serviced by the write queue
system.mem_ctrls.mergedWrBursts                     0                       # Number of DRAM write bursts merged with an existing one
system.mem_ctrls.neitherReadNorWriteReqs            0                       # Number of requests that are neither read nor write
system.mem_ctrls.perBankRdBursts::0               286                       # Per bank write bursts
system.mem_ctrls.perBankRdBursts::1               322                       # Per bank write bursts
system.mem_ctrls.perBankRdBursts::2               210                       # Per bank write bursts
system.mem_ctrls.perBankRdBursts::3               410                       # Per bank write bursts
system.mem_ctrls.perBankRdBursts::4               458                       # Per bank write bursts
system.mem_ctrls.perBankRdBursts::5               384                       # Per bank write bursts
system.mem_ctrls.perBankRdBursts::6               398                       # Per bank write bursts
system.mem_ctrls.perBankRdBursts::7               422                       # Per bank write bursts
system.mem_ctrls.perBankRdBursts::8               386                       # Per bank write bursts
system.mem_ctrls.perBankRdBursts::9               394                       # Per bank write bursts
system.mem_ctrls.perBankRdBursts::10              446                       # Per bank write bursts
system.mem_ctrls.perBankRdBursts::11              306                       # Per bank write bursts
system.mem_ctrls.perBankRdBursts::12              318                       # Per bank write bursts
system.mem_ctrls.perBankRdBursts::13              364                       # Per bank write bursts
system.mem_ctrls.perBankRdBursts::14              434                       # Per bank write bursts
system.mem_ctrls.perBankRdBursts::15              346                       # Per bank write bursts
system.mem_ctrls.perBankWrBursts::0                 0                       # Per bank write bursts
system.mem_ctrls.perBankWrBursts::1                 0                       # Per bank write bursts
system.mem_ctrls.perBankWrBursts::2                 0                       # Per bank write bursts
system.mem_ctrls.perBankWrBursts::3                 0                       # Per bank write bursts
system.mem_ctrls.perBankWrBursts::4                 0                       # Per bank write bursts
system.mem_ctrls.perBankWrBursts::5                 0                       # Per bank write bursts
system.mem_ctrls.perBankWrBursts::6                 0                       # Per bank write bursts
system.mem_ctrls.perBankWrBursts::7                 0                       # Per bank write bursts
system.mem_ctrls.perBankWrBursts::8                 0                       # Per bank write bursts
system.mem_ctrls.perBankWrBursts::9                 0                       # Per bank write bursts
system.mem_ctrls.perBankWrBursts::10                0                       # Per bank write bursts
system.mem_ctrls.perBankWrBursts::11                0                       # Per bank write bursts
system.mem_ctrls.perBankWrBursts::12                0                       # Per bank write bursts
system.mem_ctrls.perBankWrBursts::13                0                       # Per bank write bursts
system.mem_ctrls.perBankWrBursts::14                0                       # Per bank write bursts
system.mem_ctrls.perBankWrBursts::15                0                       # Per bank write bursts
system.mem_ctrls.avgRdQLen                       2.00                       # Average read queue length when enqueuing
system.mem_ctrls.avgWrQLen                       0.00                       # Average write queue length when enqueuing
system.mem_ctrls.totQLat                     80900500                       # Total ticks spent queuing
system.mem_ctrls.totBusLat                   29420000                       # Total ticks spent in databus transfers
system.mem_ctrls.totMemAccLat               191225500                       # Total ticks spent from burst creation until serviced by the DRAM
system.mem_ctrls.avgQLat                     13749.24                       # Average queueing delay per DRAM burst
system.mem_ctrls.avgBusLat                    5000.00                       # Average bus latency per DRAM burst
system.mem_ctrls.avgMemAccLat                32499.24                       # Average memory access latency per DRAM burst
system.mem_ctrls.numRdRetry                         0                       # Number of times read queue was full causing retry
system.mem_ctrls.numWrRetry                         0                       # Number of times write queue was full causing retry
system.mem_ctrls.readRowHits                     4500                       # Number of row buffer hits during reads
system.mem_ctrls.writeRowHits                       0                       # Number of row buffer hits during writes
system.mem_ctrls.readRowHitRate                 76.48                       # Row buffer hit rate for reads
system.mem_ctrls.writeRowHitRate                  nan                       # Row buffer hit rate for writes
system.mem_ctrls.readPktSize::0                     0                       # Read request sizes (log2)
system.mem_ctrls.readPktSize::1                     0                       # Read request sizes (log2)
system.mem_ctrls.readPktSize::2                     0                       # Read request sizes (log2)
system.mem_ctrls.readPktSize::3                     0                       # Read request sizes (log2)
system.mem_ctrls.readPktSize::4                     0                       # Read request sizes (log2)
system.mem_ctrls.readPktSize::5                     0                       # Read request sizes (log2)
system.mem_ctrls.readPktSize::6                  5884                       # Read request sizes (log2)
system.mem_ctrls.writePktSize::0                    0                       # Write request sizes (log2)
system.mem_ctrls.writePktSize::1                    0                       # Write request sizes (log2)
system.mem_ctrls.writePktSize::2                    0                       # Write request sizes (log2)
system.mem_ctrls.writePktSize::3                    0                       # Write request sizes (log2)
system.mem_ctrls.writePktSize::4                    0                       # Write request sizes (log2)
system.mem_ctrls.writePktSize::5                    0                       # Write request sizes (log2)
system.mem_ctrls.writePktSize::6                    0                       # Write request sizes (log2)
system.mem_ctrls.rdQLenPdf::0                    2828                       # What read queue length does an incoming req see
system.mem_ctrls.rdQLenPdf::1                    2838                       # What read queue length does an incoming req see
system.mem_ctrls.rdQLenPdf::2                     110                       # What read queue length does an incoming req see
system.mem_ctrls.rdQLenPdf::3                     100                       # What read queue length does an incoming req see
system.mem_ctrls.rdQLenPdf::4                       4                       # What read queue length does an incoming req see
system.mem_ctrls.rdQLenPdf::5                       4                       # What read queue length does an incoming req see
system.mem_ctrls.rdQLenPdf::6                       0                       # What read queue length does an incoming req see
system.mem_ctrls.rdQLenPdf::7                       0                       # What read queue length does an incoming req see
system.mem_ctrls.rdQLenPdf::8                       0                       # What read queue length does an incoming req see
system.mem_ctrls.rdQLenPdf::9                       0                       # What read queue length does an incoming req see
system.mem_ctrls.rdQLenPdf::10                      0                       # What read queue length does an incoming req see
system.mem_ctrls.rdQLenPdf::11                      0                       # What read queue length does an incoming req see
system.mem_ctrls.rdQLenPdf::12                      0                       # What read queue length does an incoming req see
system.mem_ctrls.rdQLenPdf::13                      0                       # What read queue length does an incoming req see
system.mem_ctrls.rdQLenPdf::14                      0                       # What read queue length does an incoming req see
system.mem_ctrls.rdQLenPdf::15                      0                       # What read queue length does an incoming req see
system.mem_ctrls.rdQLenPdf::16                      0                       # What read queue length does an incoming req see
system.mem_ctrls.rdQLenPdf::17                      0                       # What read queue length does an incoming req see
system.mem_ctrls.rdQLenPdf::18                      0                       # What read queue length does an incoming req see
system.mem_ctrls.rdQLenPdf::19                      0                       # What read queue length does an incoming req see
system.mem_ctrls.rdQLenPdf::20                      0                       # What read queue length does an incoming req see
system.mem_ctrls.rdQLenPdf::21                      0                       # What read queue length does an incoming req see
system.mem_ctrls.rdQLenPdf::22                      0                       # What read queue length does an incoming req see
system.mem_ctrls.rdQLenPdf::23                      0                       # What read queue length does an incoming req see
system.mem_ctrls.rdQLenPdf::24                      0                       # What read queue length does an incoming req see
system.mem_ctrls.rdQLenPdf::25                      0                       # What read queue length does an incoming req see
system.mem_ctrls.rdQLenPdf::26                      0                       # What read queue length does an incoming req see
system.mem_ctrls.rdQLenPdf::27                      0                       # What read queue length does an incoming req see
system.mem_ctrls.rdQLenPdf::28                      0                       # What read queue length does an incoming req see
system.mem_ctrls.rdQLenPdf::29                      0                       # What read queue length does an incoming req see
system.mem_ctrls.rdQLenPdf::30                      0                       # What read queue length does an incoming req see
system.mem_ctrls.rdQLenPdf::31                      0                       # What read queue length does an incoming req see
system.mem_ctrls.wrQLenPdf::0                       0                       # What write queue length does an incoming req see
system.mem_ctrls.wrQLenPdf::1                       0                       # What write queue length does an incoming req see
system.mem_ctrls.wrQLenPdf::2                       0                       # What write queue length does an incoming req see
system.mem_ctrls.wrQLenPdf::3                       0                       # What write queue length does an incoming req see
system.mem_ctrls.wrQLenPdf::4                       0                       # What write queue length does an incoming req see
system.mem_ctrls.wrQLenPdf::5                       0                       # What write queue length does an incoming req see
system.mem_ctrls.wrQLenPdf::6                       0                       # What write queue length does an incoming req see
system.mem_ctrls.wrQLenPdf::7                       0                       # What write queue length does an incoming req see
system.mem_ctrls.wrQLenPdf::8                       0                       # What write queue length does an incoming req see
system.mem_ctrls.wrQLenPdf::9                       0                       # What write queue length does an incoming req see
system.mem_ctrls.wrQLenPdf::10                      0                       # What write queue length does an incoming req see
system.mem_ctrls.wrQLenPdf::11                      0                       # What write queue length does an incoming req see
system.mem_ctrls.wrQLenPdf::12                      0                       # What write queue length does an incoming req see
system.mem_ctrls.wrQLenPdf::13                      0                       # What write queue length does an incoming req see
system.mem_ctrls.wrQLenPdf::14                      0                       # What write queue length does an incoming req see
system.mem_ctrls.wrQLenPdf::15                      0                       # What write queue length does an incoming req see
system.mem_ctrls.wrQLenPdf::16                      0                       # What write queue length does an incoming req see
system.mem_ctrls.wrQLenPdf::17                      0                       # What write queue length does an incoming req see
system.mem_ctrls.wrQLenPdf::18                      0                       # What write queue length does an incoming req see
system.mem_ctrls.wrQLenPdf::19                      0                       # What write queue length does an incoming req see
system.mem_ctrls.wrQLenPdf::20                      0                       # What write queue length does an incoming req see
system.mem_ctrls.wrQLenPdf::21                      0                       # What write queue length does an incoming req see
system.mem_ctrls.wrQLenPdf::22                      0                       # What write queue length does an incoming req see
system.mem_ctrls.wrQLenPdf::23                      0                       # What write queue length does an incoming req see
system.mem_ctrls.wrQLenPdf::24                      0                       # What write queue length does an incoming req see
system.mem_ctrls.wrQLenPdf::25                      0                       # What write queue length does an incoming req see
system.mem_ctrls.wrQLenPdf::26                      0                       # What write queue length does an incoming req see
system.mem_ctrls.wrQLenPdf::27                      0                       # What write queue length does an incoming req see
system.mem_ctrls.wrQLenPdf::28                      0                       # What write queue length does an incoming req see
system.mem_ctrls.wrQLenPdf::29                      0                       # What write queue length does an incoming req see
system.mem_ctrls.wrQLenPdf::30                      0                       # What write queue length does an incoming req see
system.mem_ctrls.wrQLenPdf::31                      0                       # What write queue length does an incoming req see
system.mem_ctrls.wrQLenPdf::32                      0                       # What write queue length does an incoming req see
system.mem_ctrls.wrQLenPdf::33                      0                       # What write queue length does an incoming req see
system.mem_ctrls.wrQLenPdf::34                      0                       # What write queue length does an incoming req see
system.mem_ctrls.wrQLenPdf::35                      0                       # What write queue length does an incoming req see
system.mem_ctrls.wrQLenPdf::36                      0                       # What write queue length does an incoming req see
system.mem_ctrls.wrQLenPdf::37                      0                       # What write queue length does an incoming req see
system.mem_ctrls.wrQLenPdf::38                      0                       # What write queue length does an incoming req see
system.mem_ctrls.wrQLenPdf::39                      0                       # What write queue length does an incoming req see
system.mem_ctrls.wrQLenPdf::40                      0                       # What write queue length does an incoming req see
system.mem_ctrls.wrQLenPdf::41                      0                       # What write queue length does an incoming req see
system.mem_ctrls.wrQLenPdf::42                      0                       # What write queue length does an incoming req see
system.mem_ctrls.wrQLenPdf::43                      0                       # What write queue length does an incoming req see
system.mem_ctrls.wrQLenPdf::44                      0                       # What write queue length does an incoming req see
system.mem_ctrls.wrQLenPdf::45                      0                       # What write queue length does an incoming req see
system.mem_ctrls.wrQLenPdf::46                      0                       # What write queue length does an incoming req see
system.mem_ctrls.wrQLenPdf::47                      0                       # What write queue length does an incoming req see
system.mem_ctrls.wrQLenPdf::48                      0                       # What write queue length does an incoming req see
system.mem_ctrls.wrQLenPdf::49                      0                       # What write queue length does an incoming req see
system.mem_ctrls.wrQLenPdf::50                      0                       # What write queue length does an incoming req see
system.mem_ctrls.wrQLenPdf::51                      0                       # What write queue length does an incoming req see
system.mem_ctrls.wrQLenPdf::52                      0                       # What write queue length does an incoming req see
system.mem_ctrls.wrQLenPdf::53                      0                       # What write queue length does an incoming req see
system.mem_ctrls.wrQLenPdf::54                      0                       # What write queue length does an incoming req see
system.mem_ctrls.wrQLenPdf::55                      0                       # What write queue length does an incoming req see
system.mem_ctrls.wrQLenPdf::56                      0                       # What write queue length does an incoming req see
system.mem_ctrls.wrQLenPdf::57                      0                       # What write queue length does an incoming req see
system.mem_ctrls.wrQLenPdf::58                      0                       # What write queue length does an incoming req see
system.mem_ctrls.wrQLenPdf::59                      0                       # What write queue length does an incoming req see
system.mem_ctrls.wrQLenPdf::60                      0                       # What write queue length does an incoming req see
system.mem_ctrls.wrQLenPdf::61                      0                       # What write queue length does an incoming req see
system.mem_ctrls.wrQLenPdf::62                      0                       # What write queue length does an incoming req see
system.mem_ctrls.wrQLenPdf::63                      0                       # What write queue length does an incoming req see
system.mem_ctrls.bytesPerActivate::samples         1384                       # Bytes accessed per row activation
system.mem_ctrls.bytesPerActivate::mean    272.092486                       # Bytes accessed per row activation
system.mem_ctrls.bytesPerActivate::gmean   192.332100                       # Bytes accessed per row activation
system.mem_ctrls.bytesPerActivate::stdev   287.726054                       # Bytes accessed per row activation
system.mem_ctrls.bytesPerActivate::128-255         1012     73.12%     73.12% # Bytes accessed per row activation
system.mem_ctrls.bytesPerActivate::256-383           69      4.99%     78.11% # Bytes accessed per row activation
system.mem_ctrls.bytesPerActivate::384-511           68      4.91%     83.02% # Bytes accessed per row activation
system.mem_ctrls.bytesPerActivate::512-639           40      2.89%     85.91% # Bytes accessed per row activation
system.mem_ctrls.bytesPerActivate::640-767           28      2.02%     87.93% # Bytes accessed per row activation
system.mem_ctrls.bytesPerActivate::768-895           17      1.23%     89.16% # Bytes accessed per row activation
system.mem_ctrls.bytesPerActivate::896-1023           14      1.01%     90.17% # Bytes accessed per row activation
system.mem_ctrls.bytesPerActivate::1024-1151          136      9.83%    100.00% # Bytes accessed per row activation
system.mem_ctrls.bytesPerActivate::total         1384                       # Bytes accessed per row activation
system.mem_ctrls.bytesReadDRAM                 376576                       # Total number of bytes read from DRAM
system.mem_ctrls.bytesReadWrQ                       0                       # Total number of bytes read from write queue
system.mem_ctrls.bytesWritten                       0                       # Total number of bytes written to DRAM
system.mem_ctrls.bytesReadSys                  376576                       # Total read bytes from the system interface side
system.mem_ctrls.bytesWrittenSys                    0                       # Total written bytes from the system interface side
system.mem_ctrls.avgRdBW                         3.19                       # Average DRAM read bandwidth in MiByte/s
system.mem_ctrls.avgWrBW                         0.00                       # Average achieved write bandwidth in MiByte/s
system.mem_ctrls.avgRdBWSys                      3.19                       # Average system read bandwidth in MiByte/s
system.mem_ctrls.avgWrBWSys                      0.00                       # Average system write bandwidth in MiByte/s
system.mem_ctrls.peakBW                      12800.00                       # Theoretical peak bandwidth in MiByte/s
system.mem_ctrls.busUtil                         0.02                       # Data bus utilization in percentage
system.mem_ctrls.busUtilRead                     0.02                       # Data bus utilization in percentage for reads
system.mem_ctrls.busUtilWrite                    0.00                       # Data bus utilization in percentage for writes
system.mem_ctrls.totGap                   15811533000                       # Total gap between requests
system.mem_ctrls.avgGap                    5374416.38                       # Average gap between requests
system.mem_ctrls.masterReadBytes::.cpu.inst       101632                       # Per-master bytes read from memory
system.mem_ctrls.masterReadBytes::.cpu.data       274944                       # Per-master bytes read from memory
system.mem_ctrls.masterReadRate::.cpu.inst 862169.711429680232                       # Per-master bytes read from memory rate (Bytes/sec)
system.mem_ctrls.masterReadRate::.cpu.data 2332418.816311024129                       # Per-master bytes read from memory rate (Bytes/sec)
system.mem_ctrls.masterReadAccesses::.cpu.inst         1588                       # Per-master read serviced memory accesses
system.mem_ctrls.masterReadAccesses::.cpu.data         4296                       # Per-master read serviced memory accesses
system.mem_ctrls.masterReadTotalLat::.cpu.inst     47784000                       # Per-master read total memory access latency
system.mem_ctrls.masterReadTotalLat::.cpu.data    143441500                       # Per-master read total memory access latency
system.mem_ctrls.masterReadAvgLat::.cpu.inst     30090.68                       # Per-master read average memory access latency
system.mem_ctrls.masterReadAvgLat::.cpu.data     33389.55                       # Per-master read average memory access latency
system.mem_ctrls.pageHitRate                    76.48                       # Row buffer hit rate, read and write combined
system.mem_ctrls.rank1.actEnergy              4976580                       # Energy for activate commands per rank (pJ)
[...]
system.cpu.icache.ReadReq_mshr_misses::total         5211                       # number of ReadReq MSHR misses
system.cpu.icache.ReadReq_mshr_miss_latency::.cpu.inst    193539000                       # number of ReadReq MSHR miss cycles
system.cpu.icache.ReadReq_mshr_miss_latency::total    193539000                       # number of ReadReq MSHR miss cycles
system.cpu.icache.ReadReq_mshr_miss_rate::.cpu.inst     0.000343                       # mshr miss rate for ReadReq accesses
system.cpu.icache.ReadReq_mshr_miss_rate::total     0.000343                       # mshr miss rate for ReadReq accesses
system.cpu.icache.ReadReq_avg_mshr_miss_latency::.cpu.inst 37140.472078                       # average ReadReq mshr miss latency
system.cpu.icache.ReadReq_avg_mshr_miss_latency::total 37140.472078                       # average ReadReq mshr miss latency
system.cpu.icache.tags.pwrStateResidencyTicks::UNDEFINED 117879344000                       # Cumulative time (in ticks) in various power states
system.cpu.icache.tags.tagsinuse           255.917110                       # Cycle average of tags in use
system.cpu.icache.tags.total_refs            15209194                       # Total number of references to valid blocks.
system.cpu.icache.tags.sampled_refs              5211                       # Sample count of references to valid blocks.
system.cpu.icache.tags.avg_refs           2918.670889                       # Average number of references to valid blocks.
system.cpu.icache.tags.warmup_cycle            113000                       # Cycle when the warmup percentage was hit.
system.cpu.icache.tags.occ_blocks::.cpu.inst   255.917110                       # Average occupied blocks per requestor
system.cpu.icache.tags.occ_percent::.cpu.inst     0.999676                       # Average percentage of cache occupancy
system.cpu.icache.tags.occ_percent::total     0.999676                       # Average percentage of cache occupancy
system.cpu.icache.tags.occ_task_id_blocks::1024          256                       # Occupied blocks per task id
system.cpu.icache.tags.age_task_id_blocks_1024::2           13                       # Occupied blocks per task id
system.cpu.icache.tags.age_task_id_blocks_1024::3           14                       # Occupied blocks per task id
system.cpu.icache.tags.age_task_id_blocks_1024::4          229                       # Occupied blocks per task id
system.cpu.icache.tags.occ_task_id_percent::1024            1                       # Percentage of cache occupancy per task id
system.cpu.icache.tags.tag_accesses          30423599                       # Number of tag accesses
system.cpu.icache.tags.data_accesses         30423599                       # Number of data accesses
system.cpu.dtb.walker.pwrStateResidencyTicks::UNDEFINED 117879344000                       # Cumulative time (in ticks) in various power states
system.cpu.dtb.stage2_mmu.stage2_tlb.walker.pwrStateResidencyTicks::UNDEFINED 117879344000                       # Cumulative time (in ticks) in various power states
system.cpu.dcache.pwrStateResidencyTicks::UNDEFINED 117879344000                       # Cumulative time (in ticks) in various power states
system.cpu.dcache.demand_hits::.cpu.data     43887531                       # number of demand (read+write) hits
system.cpu.dcache.demand_hits::total         43887531                       # number of demand (read+write) hits
system.cpu.dcache.overall_hits::.cpu.data     43896175                       # number of overall hits
system.cpu.dcache.overall_hits::total        43896175                       # number of overall hits
system.cpu.dcache.demand_misses::.cpu.data        16048                       # number of demand (read+write) misses
system.cpu.dcache.demand_misses::total          16048                       # number of demand (read+write) misses
system.cpu.dcache.overall_misses::.cpu.data        16117                       # number of overall misses
system.cpu.dcache.overall_misses::total         16117                       # number of overall misses
system.cpu.dcache.demand_miss_latency::.cpu.data    687999000                       # number of demand (read+write) miss cycles
system.cpu.dcache.demand_miss_latency::total    687999000                       # number of demand (read+write) miss cycles
system.cpu.dcache.overall_miss_latency::.cpu.data    687999000                       # number of overall miss cycles
system.cpu.dcache.overall_miss_latency::total    687999000                       # number of overall miss cycles
system.cpu.dcache.demand_accesses::.cpu.data     43903579                       # number of demand (read+write) accesses
system.cpu.dcache.demand_accesses::total     43903579                       # number of demand (read+write) accesses
system.cpu.dcache.overall_accesses::.cpu.data     43912292                       # number of overall (read+write) accesses
system.cpu.dcache.overall_accesses::total     43912292                       # number of overall (read+write) accesses
system.cpu.dcache.demand_miss_rate::.cpu.data     0.000366                       # miss rate for demand accesses
system.cpu.dcache.demand_miss_rate::total     0.000366                       # miss rate for demand accesses
system.cpu.dcache.overall_miss_rate::.cpu.data     0.000367                       # miss rate for overall accesses
system.cpu.dcache.overall_miss_rate::total     0.000367                       # miss rate for overall accesses
system.cpu.dcache.demand_avg_miss_latency::.cpu.data 42871.323529                       # average overall miss latency
system.cpu.dcache.demand_avg_miss_latency::total 42871.323529                       # average overall miss latency
system.cpu.dcache.overall_avg_miss_latency::.cpu.data 42687.783086                       # average overall miss latency
system.cpu.dcache.overall_avg_miss_latency::total 42687.783086                       # average overall miss latency
system.cpu.dcache.blocked_cycles::no_mshrs            0                       # number of cycles access was blocked
system.cpu.dcache.blocked_cycles::no_targets            0                       # number of cycles access was blocked
system.cpu.dcache.blocked::no_mshrs                 0                       # number of cycles access was blocked
system.cpu.dcache.blocked::no_targets               0                       # number of cycles access was blocked
system.cpu.dcache.avg_blocked_cycles::no_mshrs          nan                       # average number of cycles each access was blocked
system.cpu.dcache.avg_blocked_cycles::no_targets          nan                       # average number of cycles each access was blocked
system.cpu.dcache.writebacks::.writebacks        12069                       # number of writebacks
system.cpu.dcache.writebacks::total             12069                       # number of writebacks
system.cpu.dcache.demand_mshr_hits::.cpu.data         2245                       # number of demand (read+write) MSHR hits
system.cpu.dcache.demand_mshr_hits::total         2245                       # number of demand (read+write) MSHR hits
system.cpu.dcache.overall_mshr_hits::.cpu.data         2245                       # number of overall MSHR hits
system.cpu.dcache.overall_mshr_hits::total         2245                       # number of overall MSHR hits
system.cpu.dcache.demand_mshr_misses::.cpu.data        13803                       # number of demand (read+write) MSHR misses
system.cpu.dcache.demand_mshr_misses::total        13803                       # number of demand (read+write) MSHR misses
system.cpu.dcache.overall_mshr_misses::.cpu.data        13849                       # number of overall MSHR misses
system.cpu.dcache.overall_mshr_misses::total        13849                       # number of overall MSHR misses
system.cpu.dcache.demand_mshr_miss_latency::.cpu.data    513445000                       # number of demand (read+write) MSHR miss cycles
system.cpu.dcache.demand_mshr_miss_latency::total    513445000                       # number of demand (read+write) MSHR miss cycles
system.cpu.dcache.overall_mshr_miss_latency::.cpu.data    518995000                       # number of overall MSHR miss cycles
system.cpu.dcache.overall_mshr_miss_latency::total    518995000                       # number of overall MSHR miss cycles
system.cpu.dcache.demand_mshr_miss_rate::.cpu.data     0.000314                       # mshr miss rate for demand accesses
system.cpu.dcache.demand_mshr_miss_rate::total     0.000314                       # mshr miss rate for demand accesses
system.cpu.dcache.overall_mshr_miss_rate::.cpu.data     0.000315                       # mshr miss rate for overall accesses
system.cpu.dcache.overall_mshr_miss_rate::total     0.000315                       # mshr miss rate for overall accesses
system.cpu.dcache.demand_avg_mshr_miss_latency::.cpu.data 37198.072883                       # average overall mshr miss latency
system.cpu.dcache.demand_avg_mshr_miss_latency::total 37198.072883                       # average overall mshr miss latency
system.cpu.dcache.overall_avg_mshr_miss_latency::.cpu.data 37475.268972                       # average overall mshr miss latency
system.cpu.dcache.overall_avg_mshr_miss_latency::total 37475.268972                       # average overall mshr miss latency
system.cpu.dcache.replacements                  12825                       # number of replacements
system.cpu.dcache.ReadReq_hits::.cpu.data     37579296                       # number of ReadReq hits
system.cpu.dcache.ReadReq_hits::total        37579296                       # number of ReadReq hits
system.cpu.dcache.ReadReq_misses::.cpu.data         3467                       # number of ReadReq misses
system.cpu.dcache.ReadReq_misses::total          3467                       # number of ReadReq misses
system.cpu.dcache.ReadReq_miss_latency::.cpu.data    116293000                       # number of ReadReq miss cycles
system.cpu.dcache.ReadReq_miss_latency::total    116293000                       # number of ReadReq miss cycles
system.cpu.dcache.ReadReq_accesses::.cpu.data     37582763                       # number of ReadReq accesses(hits+misses)
system.cpu.dcache.ReadReq_accesses::total     37582763                       # number of ReadReq accesses(hits+misses)
system.cpu.dcache.ReadReq_miss_rate::.cpu.data     0.000092                       # miss rate for ReadReq accesses
system.cpu.dcache.ReadReq_miss_rate::total     0.000092                       # miss rate for ReadReq accesses
system.cpu.dcache.ReadReq_avg_miss_latency::.cpu.data 33542.832420                       # average ReadReq miss latency
system.cpu.dcache.ReadReq_avg_miss_latency::total 33542.832420                       # average ReadReq miss latency
system.cpu.dcache.ReadReq_mshr_hits::.cpu.data           34                       # number of ReadReq MSHR hits
system.cpu.dcache.ReadReq_mshr_hits::total           34                       # number of ReadReq MSHR hits
system.cpu.dcache.ReadReq_mshr_misses::.cpu.data         3433                       # number of ReadReq MSHR misses
system.cpu.dcache.ReadReq_mshr_misses::total         3433                       # number of ReadReq MSHR misses
system.cpu.dcache.ReadReq_mshr_miss_latency::.cpu.data    106478000                       # number of ReadReq MSHR miss cycles
system.cpu.dcache.ReadReq_mshr_miss_latency::total    106478000                       # number of ReadReq MSHR miss cycles
system.cpu.dcache.ReadReq_mshr_miss_rate::.cpu.data     0.000091                       # mshr miss rate for ReadReq accesses
system.cpu.dcache.ReadReq_mshr_miss_rate::total     0.000091                       # mshr miss rate for ReadReq accesses
system.cpu.dcache.ReadReq_avg_mshr_miss_latency::.cpu.data 31016.020973                       # average ReadReq mshr miss latency
system.cpu.dcache.ReadReq_avg_mshr_miss_latency::total 31016.020973                       # average ReadReq mshr miss latency
system.cpu.dcache.WriteReq_hits::.cpu.data      6308235                       # number of WriteReq hits
system.cpu.dcache.WriteReq_hits::total        6308235                       # number of WriteReq hits
system.cpu.dcache.WriteReq_misses::.cpu.data        12581                       # number of WriteReq misses
system.cpu.dcache.WriteReq_misses::total        12581                       # number of WriteReq misses
system.cpu.dcache.WriteReq_miss_latency::.cpu.data    571706000                       # number of WriteReq miss cycles
system.cpu.dcache.WriteReq_miss_latency::total    571706000                       # number of WriteReq miss cycles
system.cpu.dcache.WriteReq_accesses::.cpu.data      6320816                       # number of WriteReq accesses(hits+misses)
system.cpu.dcache.WriteReq_accesses::total      6320816                       # number of WriteReq accesses(hits+misses)
system.cpu.dcache.WriteReq_miss_rate::.cpu.data     0.001990                       # miss rate for WriteReq accesses
system.cpu.dcache.WriteReq_miss_rate::total     0.001990                       # miss rate for WriteReq accesses
system.cpu.dcache.WriteReq_avg_miss_latency::.cpu.data 45442.015738                       # average WriteReq miss latency
system.cpu.dcache.WriteReq_avg_miss_latency::total 45442.015738                       # average WriteReq miss latency
system.cpu.dcache.WriteReq_mshr_hits::.cpu.data         2211                       # number of WriteReq MSHR hits
system.cpu.dcache.WriteReq_mshr_hits::total         2211                       # number of WriteReq MSHR hits
system.cpu.dcache.WriteReq_mshr_misses::.cpu.data        10370                       # number of WriteReq MSHR misses
system.cpu.dcache.WriteReq_mshr_misses::total        10370                       # number of WriteReq MSHR misses
system.cpu.dcache.WriteReq_mshr_miss_latency::.cpu.data    406967000                       # number of WriteReq MSHR miss cycles
system.cpu.dcache.WriteReq_mshr_miss_latency::total    406967000                       # number of WriteReq MSHR miss cycles
system.cpu.dcache.WriteReq_mshr_miss_rate::.cpu.data     0.001641                       # mshr miss rate for WriteReq accesses
system.cpu.dcache.WriteReq_mshr_miss_rate::total     0.001641                       # mshr miss rate for WriteReq accesses
system.cpu.dcache.WriteReq_avg_mshr_miss_latency::.cpu.data 39244.648023                       # average WriteReq mshr miss latency
system.cpu.dcache.WriteReq_avg_mshr_miss_latency::total 39244.648023                       # average WriteReq mshr miss latency
system.cpu.dcache.SoftPFReq_hits::.cpu.data         8644                       # number of SoftPFReq hits
system.cpu.dcache.SoftPFReq_hits::total          8644                       # number of SoftPFReq hits
system.cpu.dcache.SoftPFReq_misses::.cpu.data           69                       # number of SoftPFReq misses
system.cpu.dcache.SoftPFReq_misses::total           69                       # number of SoftPFReq misses
system.cpu.dcache.SoftPFReq_accesses::.cpu.data         8713                       # number of SoftPFReq accesses(hits+misses)
system.cpu.dcache.SoftPFReq_accesses::total         8713                       # number of SoftPFReq accesses(hits+misses)
system.cpu.dcache.SoftPFReq_miss_rate::.cpu.data     0.007919                       # miss rate for SoftPFReq accesses
system.cpu.dcache.SoftPFReq_miss_rate::total     0.007919                       # miss rate for SoftPFReq accesses
system.cpu.dcache.SoftPFReq_mshr_misses::.cpu.data           46                       # number of SoftPFReq MSHR misses
system.cpu.dcache.SoftPFReq_mshr_misses::total           46                       # number of SoftPFReq MSHR misses
system.cpu.dcache.SoftPFReq_mshr_miss_latency::.cpu.data      5550000                       # number of SoftPFReq MSHR miss cycles
system.cpu.dcache.SoftPFReq_mshr_miss_latency::total      5550000                       # number of SoftPFReq MSHR miss cycles
system.cpu.dcache.SoftPFReq_mshr_miss_rate::.cpu.data     0.005279                       # mshr miss rate for SoftPFReq accesses
system.cpu.dcache.SoftPFReq_mshr_miss_rate::total     0.005279                       # mshr miss rate for SoftPFReq accesses
system.cpu.dcache.SoftPFReq_avg_mshr_miss_latency::.cpu.data 120652.173913                       # average SoftPFReq mshr miss latency
system.cpu.dcache.SoftPFReq_avg_mshr_miss_latency::total 120652.173913                       # average SoftPFReq mshr miss latency
system.cpu.dcache.LoadLockedReq_hits::.cpu.data          166                       # number of LoadLockedReq hits
system.cpu.dcache.LoadLockedReq_hits::total          166                       # number of LoadLockedReq hits
system.cpu.dcache.LoadLockedReq_accesses::.cpu.data          166                       # number of LoadLockedReq accesses(hits+misses)
system.cpu.dcache.LoadLockedReq_accesses::total          166                       # number of LoadLockedReq accesses(hits+misses)
system.cpu.dcache.StoreCondReq_hits::.cpu.data          166                       # number of StoreCondReq hits
system.cpu.dcache.StoreCondReq_hits::total          166                       # number of StoreCondReq hits
system.cpu.dcache.StoreCondReq_accesses::.cpu.data          166                       # number of StoreCondReq accesses(hits+misses)
system.cpu.dcache.StoreCondReq_accesses::total          166                       # number of StoreCondReq accesses(hits+misses)
system.cpu.dcache.tags.pwrStateResidencyTicks::UNDEFINED 117879344000                       # Cumulative time (in ticks) in various power states
system.cpu.dcache.tags.tagsinuse          1008.905926                       # Cycle average of tags in use
system.cpu.dcache.tags.total_refs            43910356                       # Total number of references to valid blocks.
system.cpu.dcache.tags.sampled_refs             13849                       # Sample count of references to valid blocks.
system.cpu.dcache.tags.avg_refs           3170.651744                       # Average number of references to valid blocks.
system.cpu.dcache.tags.warmup_cycle            233000                       # Cycle when the warmup percentage was hit.
system.cpu.dcache.tags.occ_blocks::.cpu.data  1008.905926                       # Average occupied blocks per requestor
system.cpu.dcache.tags.occ_percent::.cpu.data     0.985260                       # Average percentage of cache occupancy
system.cpu.dcache.tags.occ_percent::total     0.985260                       # Average percentage of cache occupancy
system.cpu.dcache.tags.occ_task_id_blocks::1024         1024                       # Occupied blocks per task id
system.cpu.dcache.tags.age_task_id_blocks_1024::0            1                       # Occupied blocks per task id
system.cpu.dcache.tags.age_task_id_blocks_1024::1            9                       # Occupied blocks per task id
system.cpu.dcache.tags.age_task_id_blocks_1024::2           61                       # Occupied blocks per task id
system.cpu.dcache.tags.age_task_id_blocks_1024::3          552                       # Occupied blocks per task id
system.cpu.dcache.tags.age_task_id_blocks_1024::4          401                       # Occupied blocks per task id
system.cpu.dcache.tags.occ_task_id_percent::1024            1                       # Percentage of cache occupancy per task id
system.cpu.dcache.tags.tag_accesses         175664345                       # Number of tag accesses
system.cpu.dcache.tags.data_accesses        175664345                       # Number of data accesses
system.cpu.itb.walker.pwrStateResidencyTicks::UNDEFINED 117879344000                       # Cumulative time (in ticks) in various power states
system.cpu.itb.stage2_mmu.stage2_tlb.walker.pwrStateResidencyTicks::UNDEFINED 117879344000                       # Cumulative time (in ticks) in various power states

---------- End Simulation Statistics   ----------
