
---------- Begin Simulation Statistics ----------
final_tick                                  694987000                       # Number of ticks from beginning of simulation (restored from checkpoints and never reset)
host_inst_rate                                 257934                       # Simulator instruction rate (inst/s)
host_mem_usage                                 687680                       # Number of bytes of host memory used
host_op_rate                                   258441                       # Simulator op (including micro ops) rate (op/s)
host_seconds                                     2.01                       # Real time elapsed on the host
host_tick_rate                              344978017                       # Simulator tick rate (ticks/s)
sim_freq                                 1000000000000                       # Frequency of simulated ticks
sim_insts                                      519599                       # Number of instructions simulated
sim_ops                                        520647                       # Number of ops (including micro ops) simulated
sim_seconds                                  0.000695                       # Number of seconds simulated
sim_ticks                                   694987000                       # Number of ticks simulated
system.cpu.branchPred.BTBCorrect                    0                       # Number of correct BTB predictions (this stat may not work properly.
system.cpu.branchPred.BTBHitPct             81.570871                       # BTB Hit Percentage
system.cpu.branchPred.BTBHits                    5847                       # Number of BTB hits
system.cpu.branchPred.BTBLookups                 7168                       # Number of BTB lookups
system.cpu.branchPred.RASInCorrect                  5                       # Number of incorrect RAS predictions.
system.cpu.branchPred.condIncorrect               525                       # Number of conditional branches incorrect
system.cpu.branchPred.condPredicted              6788                       # Number of conditional branches predicted
system.cpu.branchPred.indirectHits                 14                       # Number of indirect target hits.
system.cpu.branchPred.indirectLookups             108                       # Number of indirect predictor lookups.
system.cpu.branchPred.indirectMisses               94                       # Number of indirect misses.
system.cpu.branchPred.lookups                    7676                       # Number of BP lookups
system.cpu.branchPred.usedRAS                     208                       # Number of times the RAS was used to get a target.
system.cpu.branchPredindirectMispredicted           46                       # Number of mispredicted indirect branches.
system.cpu.committedInsts                      519599                       # Number of instructions committed
system.cpu.committedOps                        520647                       # Number of ops (including micro ops) committed
system.cpu.cpi                               1.337545                       # CPI: cycles per instruction
system.cpu.discardedOps                          1719                       # Number of ops (including micro ops) which were discarded before commit
system.cpu.dtb.accesses                             0                       # DTB accesses
system.cpu.dtb.align_faults                         0                       # Number of TLB faults due to alignment restrictions
system.cpu.dtb.domain_faults                        0                       # Number of TLB faults due to domain restrictions
system.cpu.dtb.flush_entries                        0                       # Number of entries that have been flushed from TLB
system.cpu.dtb.flush_tlb                            0                       # Number of times complete TLB was flushed
system.cpu.dtb.flush_tlb_asid                       0                       # Number of times TLB was flushed by ASID
system.cpu.dtb.flush_tlb_mva                        0                       # Number of times TLB was flushed by MVA
system.cpu.dtb.flush_tlb_mva_asid                   0                       # Number of times TLB was flushed by MVA & ASID
system.cpu.dtb.hits                                 0                       # DTB hits
system.cpu.dtb.inst_accesses                        0                       # ITB inst accesses
system.cpu.dtb.inst_hits                            0                       # ITB inst hits
system.cpu.dtb.inst_misses                          0                       # ITB inst misses
system.cpu.dtb.misses                               0                       # DTB misses
system.cpu.dtb.perms_faults                         0                       # Number of TLB faults due to permissions restrictions
system.cpu.dtb.prefetch_faults                      0                       # Number of TLB faults due to prefetch
system.cpu.dtb.read_accesses                        0                       # DTB read accesses
system.cpu.dtb.read_hits                            0                       # DTB read hits
system.cpu.dtb.read_misses                          0                       # DTB read misses
system.cpu.dtb.stage2_mmu.stage2_tlb.accesses            0                       # DTB accesses
system.cpu.dtb.stage2_mmu.stage2_tlb.align_faults            0                       # Number of TLB faults due to alignment restrictions
system.cpu.dtb.stage2_mmu.stage2_tlb.domain_faults            0                       # Number of TLB faults due to domain restrictions
system.cpu.dtb.stage2_mmu.stage2_tlb.flush_entries            0                       # Number of entries that have been flushed from TLB
system.cpu.dtb.stage2_mmu.stage2_tlb.flush_tlb            0                       # Number of times complete TLB was flushed
system.cpu.dtb.stage2_mmu.stage2_tlb.flush_tlb_asid            0                       # Number of times TLB was flushed by ASID
system.cpu.dtb.stage2_mmu.stage2_tlb.flush_tlb_mva            0                       # Number of times TLB was flushed by MVA
system.cpu.dtb.stage2_mmu.stage2_tlb.flush_tlb_mva_asid            0                       # Number of times TLB was flushed by MVA & ASID
system.cpu.dtb.stage2_mmu.stage2_tlb.hits            0                       # DTB hits
system.cpu.dtb.stage2_mmu.stage2_tlb.inst_accesses            0                       # ITB inst accesses
system.cpu.dtb.stage2_mmu.stage2_tlb.inst_hits            0                       # ITB inst hits
system.cpu.dtb.stage2_mmu.stage2_tlb.inst_misses            0                       # ITB inst misses
system.cpu.dtb.stage2_mmu.stage2_tlb.misses            0                       # DTB misses
system.cpu.dtb.stage2_mmu.stage2_tlb.perms_faults            0                       # Number of TLB faults due to permissions restrictions
system.cpu.dtb.stage2_mmu.stage2_tlb.prefetch_faults            0                       # Number of TLB faults due to prefetch
system.cpu.dtb.stage2_mmu.stage2_tlb.read_accesses            0                       # DTB read accesses
system.cpu.dtb.stage2_mmu.stage2_tlb.read_hits            0                       # DTB read hits
system.cpu.dtb.stage2_mmu.stage2_tlb.read_misses            0                       # DTB read misses
system.cpu.dtb.stage2_mmu.stage2_tlb.walker.walkRequestOrigin_Requested::Data            0                       # Table walker requests started/completed, data/inst
system.cpu.dtb.stage2_mmu.stage2_tlb.walker.walkRequestOrigin_Requested::Inst            0                       # Table walker requests started/completed, data/inst
system.cpu.dtb.stage2_mmu.stage2_tlb.walker.walkRequestOrigin_Requested::total            0                       # Table walker requests started/completed, data/inst
system.cpu.dtb.stage2_mmu.stage2_tlb.walker.walkRequestOrigin_Completed::Data            0                       # Table walker requests started/completed, data/inst
system.cpu.dtb.stage2_mmu.stage2_tlb.walker.walkRequestOrigin_Completed::Inst            0                       # Table walker requests started/completed, data/inst
system.cpu.dtb.stage2_mmu.stage2_tlb.walker.walkRequestOrigin_Completed::total            0                       # Table walker requests started/completed, data/inst
system.cpu.dtb.stage2_mmu.stage2_tlb.walker.walkRequestOrigin::total            0                       # Table walker requests started/completed, data/inst
system.cpu.dtb.stage2_mmu.stage2_tlb.walker.walks            0                       # Table walker walks requested
system.cpu.dtb.stage2_mmu.stage2_tlb.write_accesses            0                       # DTB write accesses
system.cpu.dtb.stage2_mmu.stage2_tlb.write_hits            0                       # DTB write hits
system.cpu.dtb.stage2_mmu.stage2_tlb.write_misses            0                       # DTB write misses
system.cpu.dtb.walker.walkRequestOrigin_Requested::Data            0                       # Table walker requests started/completed, data/inst
system.cpu.dtb.walker.walkRequestOrigin_Requested::Inst            0                       # Table walker requests started/completed, data/inst
system.cpu.dtb.walker.walkRequestOrigin_Requested::total            0                       # Table walker requests started/completed, data/inst
system.cpu.dtb.walker.walkRequestOrigin_Completed::Data            0                       # Table walker requests started/completed, data/inst
system.cpu.dtb.walker.walkRequestOrigin_Completed::Inst            0                       # Table walker requests started/completed, data/inst
system.cpu.dtb.walker.walkRequestOrigin_Completed::total            0                       # Table walker requests started/completed, data/inst
system.cpu.dtb.walker.walkRequestOrigin::total            0                       # Table walker requests started/completed, data/inst
system.cpu.dtb.walker.walks                         0                       # Table walker walks requested
system.cpu.dtb.write_accesses                       0                       # DTB write accesses
system.cpu.dtb.write_hits                           0                       # DTB write hits
system.cpu.dtb.write_misses                         0                       # DTB write misses
system.cpu.fetch2.amo_instructions                  0                       # Number of memory atomic instructions successfully decoded
system.cpu.fetch2.fp_instructions                   0                       # Number of floating point instructions successfully decoded
system.cpu.fetch2.int_instructions             263486                       # Number of integer instructions successfully decoded
system.cpu.fetch2.load_instructions            205056                       # Number of memory load instructions successfully decoded
system.cpu.fetch2.store_instructions            28218                       # Number of memory store instructions successfully decoded
system.cpu.fetch2.vec_instructions                  0                       # Number of SIMD instructions successfully decoded
system.cpu.idleCycles                          117520                       # Total number of cycles that the object has spent stopped
system.cpu.ipc                               0.747638                       # IPC: instructions per cycle
system.cpu.itb.accesses                             0                       # DTB accesses
system.cpu.itb.align_faults                         0                       # Number of TLB faults due to alignment restrictions
system.cpu.itb.domain_faults                        0                       # Number of TLB faults due to domain restrictions
system.cpu.itb.flush_entries                        0                       # Number of entries that have been flushed from TLB
system.cpu.itb.flush_tlb                            0                       # Number of times complete TLB was flushed
system.cpu.itb.flush_tlb_asid                       0                       # Number of times TLB was flushed by ASID
system.cpu.itb.flush_tlb_mva                        0                       # Number of times TLB was flushed by MVA
system.cpu.itb.flush_tlb_mva_asid                   0                       # Number of times TLB was flushed by MVA & ASID
system.cpu.itb.hits                                 0                       # DTB hits
system.cpu.itb.inst_accesses                        0                       # ITB inst accesses
system.cpu.itb.inst_hits                            0                       # ITB inst hits
system.cpu.itb.inst_misses                          0                       # ITB inst misses
system.cpu.itb.misses                               0                       # DTB misses
system.cpu.itb.perms_faults                         0                       # Number of TLB faults due to permissions restrictions
system.cpu.itb.prefetch_faults                      0                       # Number of TLB faults due to prefetch
system.cpu.itb.read_accesses                        0                       # DTB read accesses
system.cpu.itb.read_hits                            0                       # DTB read hits
system.cpu.itb.read_misses                          0                       # DTB read misses
system.cpu.itb.stage2_mmu.stage2_tlb.accesses            0                       # DTB accesses
system.cpu.itb.stage2_mmu.stage2_tlb.align_faults            0                       # Number of TLB faults due to alignment restrictions
system.cpu.itb.stage2_mmu.stage2_tlb.domain_faults            0                       # Number of TLB faults due to domain restrictions
system.cpu.itb.stage2_mmu.stage2_tlb.flush_entries            0                       # Number of entries that have been flushed from TLB
system.cpu.itb.stage2_mmu.stage2_tlb.flush_tlb            0                       # Number of times complete TLB was flushed
system.cpu.itb.stage2_mmu.stage2_tlb.flush_tlb_asid            0                       # Number of times TLB was flushed by ASID
system.cpu.itb.stage2_mmu.stage2_tlb.flush_tlb_mva            0                       # Number of times TLB was flushed by MVA
system.cpu.itb.stage2_mmu.stage2_tlb.flush_tlb_mva_asid            0                       # Number of times TLB was flushed by MVA & ASID
system.cpu.itb.stage2_mmu.stage2_tlb.hits            0                       # DTB hits
system.cpu.itb.stage2_mmu.stage2_tlb.inst_accesses            0                       # ITB inst accesses
system.cpu.itb.stage2_mmu.stage2_tlb.inst_hits            0                       # ITB inst hits
system.cpu.itb.stage2_mmu.stage2_tlb.inst_misses            0                       # ITB inst misses
system.cpu.itb.stage2_mmu.stage2_tlb.misses            0                       # DTB misses
system.cpu.itb.stage2_mmu.stage2_tlb.perms_faults            0                       # Number of TLB faults due to permissions restrictions
system.cpu.itb.stage2_mmu.stage2_tlb.prefetch_faults            0                       # Number of TLB faults due to prefetch
system.cpu.itb.stage2_mmu.stage2_tlb.read_accesses            0                       # DTB read accesses
system.cpu.itb.stage2_mmu.stage2_tlb.read_hits            0                       # DTB read hits
system.cpu.itb.stage2_mmu.stage2_tlb.read_misses            0                       # DTB read misses
system.cpu.itb.stage2_mmu.stage2_tlb.walker.walkRequestOrigin_Requested::Data            0                       # Table walker requests started/completed, data/inst
system.cpu.itb.stage2_mmu.stage2_tlb.walker.walkRequestOrigin_Requested::Inst            0                       # Table walker requests started/completed, data/inst
system.cpu.itb.stage2_mmu.stage2_tlb.walker.walkRequestOrigin_Requested::total            0                       # Table walker requests started/completed, data/inst
system.cpu.itb.stage2_mmu.stage2_tlb.walker.walkRequestOrigin_Completed::Data            0                       # Table walker requests started/completed, data/inst
system.cpu.itb.stage2_mmu.stage2_tlb.walker.walkRequestOrigin_Completed::Inst            0                       # Table walker requests started/completed, data/inst
system.cpu.itb.stage2_mmu.stage2_tlb.walker.walkRequestOrigin_Completed::total            0                       # Table walker requests started/completed, data/inst
system.cpu.itb.stage2_mmu.stage2_tlb.walker.walkRequestOrigin::total            0                       # Table walker requests started/completed, data/inst
system.cpu.itb.stage2_mmu.stage2_tlb.walker.walks            0                       # Table walker walks requested
system.cpu.itb.stage2_mmu.stage2_tlb.write_accesses            0                       # DTB write accesses
system.cpu.itb.stage2_mmu.stage2_tlb.write_hits            0                       # DTB write hits
system.cpu.itb.stage2_mmu.stage2_tlb.write_misses            0                       # DTB write misses
system.cpu.itb.walker.walkRequestOrigin_Requested::Data            0                       # Table walker requests started/completed, data/inst
system.cpu.itb.walker.walkRequestOrigin_Requested::Inst            0                       # Table walker requests started/completed, data/inst
system.cpu.itb.walker.walkRequestOrigin_Requested::total            0                       # Table walker requests started/completed, data/inst
system.cpu.itb.walker.walkRequestOrigin_Completed::Data            0                       # Table walker requests started/completed, data/inst
system.cpu.itb.walker.walkRequestOrigin_Completed::Inst            0                       # Table walker requests started/completed, data/inst
system.cpu.itb.walker.walkRequestOrigin_Completed::total            0                       # Table walker requests started/completed, data/inst
system.cpu.itb.walker.walkRequestOrigin::total            0                       # Table walker requests started/completed, data/inst
system.cpu.itb.walker.walks                         0                       # Table walker walks requested
system.cpu.itb.write_accesses                       0                       # DTB write accesses
system.cpu.itb.write_hits                           0                       # DTB write hits
system.cpu.itb.write_misses                         0                       # DTB write misses
system.cpu.numCycles                           694987                       # number of cpu cycles simulated
system.cpu.numFetchSuspends                         0                       # Number of times Execute suspended instruction fetching
system.cpu.numWorkItemsCompleted                    0                       # number of work items this cpu completed
system.cpu.numWorkItemsStarted                      0                       # number of work items this cpu started
system.cpu.op_class_0::No_OpClass                   0      0.00%      0.00% # Class of committed instruction
system.cpu.op_class_0::IntAlu                  275034     52.83%     52.83% # Class of committed instruction
system.cpu.op_class_0::IntMult                  13462      2.59%     55.41% # Class of committed instruction
system.cpu.op_class_0::IntDiv                       0      0.00%     55.41% # Class of committed instruction
system.cpu.op_class_0::FloatAdd                     0      0.00%     55.41% # Class of committed instruction
system.cpu.op_class_0::FloatCmp                     0      0.00%     55.41% # Class of committed instruction
system.cpu.op_class_0::FloatCvt                     0      0.00%     55.41% # Class of committed instruction
system.cpu.op_class_0::FloatMult                    0      0.00%     55.41% # Class of committed instruction
system.cpu.op_class_0::FloatMultAcc                 0      0.00%     55.41% # Class of committed instruction
system.cpu.op_class_0::FloatDiv                     0      0.00%     55.41% # Class of committed instruction
system.cpu.op_class_0::FloatMisc                    0      0.00%     55.41% # Class of committed instruction
system.cpu.op_class_0::FloatSqrt                    0      0.00%     55.41% # Class of committed instruction
system.cpu.op_class_0::SimdAdd                      0      0.00%     55.41% # Class of committed instruction
system.cpu.op_class_0::SimdAddAcc                   0      0.00%     55.41% # Class of committed instruction
system.cpu.op_class_0::SimdAlu                      0      0.00%     55.41% # Class of committed instruction
system.cpu.op_class_0::SimdCmp                      0      0.00%     55.41% # Class of committed instruction
system.cpu.op_class_0::SimdCvt                      0      0.00%     55.41% # Class of committed instruction
system.cpu.op_class_0::SimdMisc                     0      0.00%     55.41% # Class of committed instruction
system.cpu.op_class_0::SimdMult                     0      0.00%     55.41% # Class of committed instruction
system.cpu.op_class_0::SimdMultAcc                  0      0.00%     55.41% # Class of committed instruction
system.cpu.op_class_0::SimdShift                    0      0.00%     55.41% # Class of committed instruction
system.cpu.op_class_0::SimdShiftAcc                 0      0.00%     55.41% # Class of committed instruction
system.cpu.op_class_0::SimdDiv                      0      0.00%     55.41% # Class of committed instruction
system.cpu.op_class_0::SimdSqrt                     0      0.00%     55.41% # Class of committed instruction
system.cpu.op_class_0::SimdFloatAdd                 0      0.00%     55.41% # Class of committed instruction
system.cpu.op_class_0::SimdFloatAlu                 0      0.00%     55.41% # Class of committed instruction
system.cpu.op_class_0::SimdFloatCmp                 0      0.00%     55.41% # Class of committed instruction
system.cpu.op_class_0::SimdFloatCvt                 0      0.00%     55.41% # Class of committed instruction
system.cpu.op_class_0::SimdFloatDiv                 0      0.00%     55.41% # Class of committed instruction
system.cpu.op_class_0::SimdFloatMisc               17      0.00%     55.41% # Class of committed instruction
system.cpu.op_class_0::SimdFloatMult                0      0.00%     55.41% # Class of committed instruction
system.cpu.op_class_0::SimdFloatMultAcc             0      0.00%     55.41% # Class of committed instruction
system.cpu.op_class_0::SimdFloatSqrt                0      0.00%     55.41% # Class of committed instruction
system.cpu.op_class_0::SimdReduceAdd                0      0.00%     55.41% # Class of committed instruction
system.cpu.op_class_0::SimdReduceAlu                0      0.00%     55.41% # Class of committed instruction
system.cpu.op_class_0::SimdReduceCmp                0      0.00%     55.41% # Class of committed instruction
system.cpu.op_class_0::SimdFloatReduceAdd            0      0.00%     55.41% # Class of committed instruction
system.cpu.op_class_0::SimdFloatReduceCmp            0      0.00%     55.41% # Class of committed instruction
system.cpu.op_class_0::SimdAes                      0      0.00%     55.41% # Class of committed instruction
system.cpu.op_class_0::SimdAesMix                   0      0.00%     55.41% # Class of committed instruction
system.cpu.op_class_0::SimdSha1Hash                 0      0.00%     55.41% # Class of committed instruction
system.cpu.op_class_0::SimdSha1Hash2                0      0.00%     55.41% # Class of committed instruction
system.cpu.op_class_0::SimdSha256Hash               0      0.00%     55.41% # Class of committed instruction
system.cpu.op_class_0::SimdSha256Hash2              0      0.00%     55.41% # Class of committed instruction
system.cpu.op_class_0::SimdShaSigma2                0      0.00%     55.41% # Class of committed instruction
system.cpu.op_class_0::SimdShaSigma3                0      0.00%     55.41% # Class of committed instruction
system.cpu.op_class_0::SimdPredAlu                  0      0.00%     55.41% # Class of committed instruction
system.cpu.op_class_0::MemRead                 203881     39.16%     94.57% # Class of committed instruction
system.cpu.op_class_0::MemWrite                 28253      5.43%    100.00% # Class of committed instruction
system.cpu.op_class_0::FloatMemRead                 0      0.00%    100.00% # Class of committed instruction
system.cpu.op_class_0::FloatMemWrite                0      0.00%    100.00% # Class of committed instruction
system.cpu.op_class_0::IprAccess                    0      0.00%    100.00% # Class of committed instruction
system.cpu.op_class_0::InstPrefetch                 0      0.00%    100.00% # Class of committed instruction
system.cpu.op_class_0::total                   520647                       # Class of committed instruction
system.cpu.tickCycles                          577467                       # Number of cycles that the object actually ticked
system.cpu.workload.numSyscalls                     7                       # Number of system calls
system.membus.snoop_filter.hit_multi_requests            0                       # Number of requests hitting in the snoop filter with multiple (>1) holders of the requested data.
system.membus.snoop_filter.hit_multi_snoops            0                       # Number of snoops hitting in the snoop filter with multiple (>1) holders of the requested data.
system.membus.snoop_filter.hit_single_requests            0                       # Number of requests hitting in the snoop filter with a single holder of the requested data.
system.membus.snoop_filter.hit_single_snoops            0                       # Number of snoops hitting in the snoop filter with a single holder of the requested data.
system.membus.snoop_filter.tot_requests          1531                       # Total number of requests made to the snoop filter.
system.membus.snoop_filter.tot_snoops               0                       # Total number of snoops made to the snoop filter.
system.tol2bus.snoop_filter.hit_multi_requests            4                       # Number of requests hitting in the snoop filter with multiple (>1) holders of the requested data.
system.tol2bus.snoop_filter.hit_multi_snoops            0                       # Number of snoops hitting in the snoop filter with multiple (>1) holders of the requested data.
system.tol2bus.snoop_filter.hit_single_requests          102                       # Number of requests hitting in the snoop filter with a single holder of the requested data.
system.tol2bus.snoop_filter.hit_single_snoops            0                       # Number of snoops hitting in the snoop filter with a single holder of the requested data.
system.tol2bus.snoop_filter.tot_requests         1638                       # Total number of requests made to the snoop filter.
system.tol2bus.snoop_filter.tot_snoops              0                       # Total number of snoops made to the snoop filter.
system.membus.pwrStateResidencyTicks::UNDEFINED    694987000                       # Cumulative time (in ticks) in various power states
system.membus.trans_dist::ReadResp                470                       # Transaction distribution
system.membus.trans_dist::ReadExReq              1061                       # Transaction distribution
system.membus.trans_dist::ReadExResp             1061                       # Transaction distribution
system.membus.trans_dist::ReadSharedReq           470                       # Transaction distribution
system.membus.pkt_count_system.l2.mem_side::system.mem_ctrls.port         3062                       # Packet count per connected master and slave (bytes)
system.membus.pkt_count::total                   3062                       # Packet count per connected master and slave (bytes)
system.membus.pkt_size_system.l2.mem_side::system.mem_ctrls.port        97984                       # Cumulative packet size per connected master and slave (bytes)
system.membus.pkt_size::total                   97984                       # Cumulative packet size per connected master and slave (bytes)
system.membus.snoops                                0                       # Total snoops (count)
system.membus.snoopTraffic                          0                       # Total snoop traffic (bytes)
system.membus.snoop_fanout::samples              1531                       # Request fanout histogram
system.membus.snoop_fanout::mean                    0                       # Request fanout histogram
system.membus.snoop_fanout::stdev                   0                       # Request fanout histogram
system.membus.snoop_fanout::underflows              0      0.00%      0.00% # Request fanout histogram
system.membus.snoop_fanout::0                    1531    100.00%    100.00% # Request fanout histogram
system.membus.snoop_fanout::1                       0      0.00%    100.00% # Request fanout histogram
system.membus.snoop_fanout::overflows               0      0.00%    100.00% # Request fanout histogram
system.membus.snoop_fanout::min_value               0                       # Request fanout histogram
system.membus.snoop_fanout::max_value               0                       # Request fanout histogram
system.membus.snoop_fanout::total                1531                       # Request fanout histogram
system.membus.respLayer1.occupancy            8130250                       # Layer occupancy (ticks)
system.membus.respLayer1.utilization              1.2                       # Layer utilization (%)
system.membus.reqLayer0.occupancy             1531000                       # Layer occupancy (ticks)
system.membus.reqLayer0.utilization               0.2                       # Layer utilization (%)
system.tol2bus.pwrStateResidencyTicks::UNDEFINED    694987000                       # Cumulative time (in ticks) in various power states
system.tol2bus.trans_dist::ReadResp               490                       # Transaction distribution
system.tol2bus.trans_dist::WritebackDirty           22                       # Transaction distribution
system.tol2bus.trans_dist::WritebackClean           49                       # Transaction distribution
system.tol2bus.trans_dist::CleanEvict              16                       # Transaction distribution
system.tol2bus.trans_dist::ReadExReq             1061                       # Transaction distribution
system.tol2bus.trans_dist::ReadExResp            1061                       # Transaction distribution
system.tol2bus.trans_dist::ReadCleanReq           357                       # Transaction distribution
system.tol2bus.trans_dist::ReadSharedReq          133                       # Transaction distribution
system.tol2bus.pkt_count_system.cpu.icache.mem_side::system.l2.cpu_side          763                       # Packet count per connected master and slave (bytes)
system.tol2bus.pkt_count_system.cpu.dcache.mem_side::system.l2.cpu_side         2426                       # Packet count per connected master and slave (bytes)
system.tol2bus.pkt_count::total                  3189                       # Packet count per connected master and slave (bytes)
system.tol2bus.pkt_size_system.cpu.icache.mem_side::system.l2.cpu_side        25984                       # Cumulative packet size per connected master and slave (bytes)
system.tol2bus.pkt_size_system.cpu.dcache.mem_side::system.l2.cpu_side        77824                       # Cumulative packet size per connected master and slave (bytes)
system.tol2bus.pkt_size::total                 103808                       # Cumulative packet size per connected master and slave (bytes)
system.tol2bus.snoops                               0                       # Total snoops (count)
system.tol2bus.snoopTraffic                         0                       # Total snoop traffic (bytes)
system.tol2bus.snoop_fanout::samples             1551                       # Request fanout histogram
system.tol2bus.snoop_fanout::mean            0.012250                       # Request fanout histogram
system.tol2bus.snoop_fanout::stdev           0.110036                       # Request fanout histogram
system.tol2bus.snoop_fanout::underflows             0      0.00%      0.00% # Request fanout histogram
system.tol2bus.snoop_fanout::0                   1532     98.77%     98.77% # Request fanout histogram
system.tol2bus.snoop_fanout::1                     19      1.23%    100.00% # Request fanout histogram
system.tol2bus.snoop_fanout::2                      0      0.00%    100.00% # Request fanout histogram
system.tol2bus.snoop_fanout::overflows              0      0.00%    100.00% # Request fanout histogram
system.tol2bus.snoop_fanout::min_value              0                       # Request fanout histogram
system.tol2bus.snoop_fanout::max_value              1                       # Request fanout histogram
system.tol2bus.snoop_fanout::total               1551                       # Request fanout histogram
system.tol2bus.reqLayer0.occupancy            1780000                       # Layer occupancy (ticks)
system.tol2bus.reqLayer0.utilization              0.3                       # Layer utilization (%)
system.tol2bus.respLayer1.occupancy           3584997                       # Layer occupancy (ticks)
system.tol2bus.respLayer1.utilization             0.5                       # Layer utilization (%)
system.tol2bus.respLayer0.occupancy           1071000                       # Layer occupancy (ticks)
system.tol2bus.respLayer0.utilization             0.2                       # Layer utilization (%)
system.voltage_domain.voltage                       1                       # Voltage in Volts
system.clk_domain.clock                          1000                       # Clock period in ticks
system.l2.pwrStateResidencyTicks::UNDEFINED    694987000                       # Cumulative time (in ticks) in various power states
system.l2.demand_hits::.cpu.inst                    9                       # number of demand (read+write) hits
system.l2.demand_hits::.cpu.data                    9                       # number of demand (read+write) hits
system.l2.demand_hits::total                       18                       # number of demand (read+write) hits
system.l2.overall_hits::.cpu.inst                   9                       # number of overall hits
system.l2.overall_hits::.cpu.data                   9                       # number of overall hits
system.l2.overall_hits::total                      18                       # number of overall hits
system.l2.demand_misses::.cpu.inst                348                       # number of demand (read+write) misses
system.l2.demand_misses::.cpu.data               1185                       # number of demand (read+write) misses
system.l2.demand_misses::total                   1533                       # number of demand (read+write) misses
system.l2.overall_misses::.cpu.inst               348                       # number of overall misses
system.l2.overall_misses::.cpu.data              1185                       # number of overall misses
system.l2.overall_misses::total                  1533                       # number of overall misses
system.l2.demand_miss_latency::.cpu.inst     34116000                       # number of demand (read+write) miss cycles
system.l2.demand_miss_latency::.cpu.data    112677000                       # number of demand (read+write) miss cycles
system.l2.demand_miss_latency::total        146793000                       # number of demand (read+write) miss cycles
system.l2.overall_miss_latency::.cpu.inst     34116000                       # number of overall miss cycles
system.l2.overall_miss_latency::.cpu.data    112677000                       # number of overall miss cycles
system.l2.overall_miss_latency::total       146793000                       # number of overall miss cycles
system.l2.demand_accesses::.cpu.inst              357                       # number of demand (read+write) accesses
system.l2.demand_accesses::.cpu.data             1194                       # number of demand (read+write) accesses
system.l2.demand_accesses::total                 1551                       # number of demand (read+write) accesses
system.l2.overall_accesses::.cpu.inst             357                       # number of overall (read+write) accesses
system.l2.overall_accesses::.cpu.data            1194                       # number of overall (read+write) accesses
system.l2.overall_accesses::total                1551                       # number of overall (read+write) accesses
system.l2.demand_miss_rate::.cpu.inst        0.974790                       # miss rate for demand accesses
system.l2.demand_miss_rate::.cpu.data        0.992462                       # miss rate for demand accesses
system.l2.demand_miss_rate::total            0.988395                       # miss rate for demand accesses
system.l2.overall_miss_rate::.cpu.inst       0.974790                       # miss rate for overall accesses
system.l2.overall_miss_rate::.cpu.data       0.992462                       # miss rate for overall accesses
system.l2.overall_miss_rate::total           0.988395                       # miss rate for overall accesses
system.l2.demand_avg_miss_latency::.cpu.inst 98034.482759                       # average overall miss latency
system.l2.demand_avg_miss_latency::.cpu.data 95086.075949                       # average overall miss latency
system.l2.demand_avg_miss_latency::total 95755.381605                       # average overall miss latency
system.l2.overall_avg_miss_latency::.cpu.inst 98034.482759                       # average overall miss latency
system.l2.overall_avg_miss_latency::.cpu.data 95086.075949                       # average overall miss latency
system.l2.overall_avg_miss_latency::total 95755.381605                       # average overall miss latency
system.l2.blocked_cycles::no_mshrs                  0                       # number of cycles access was blocked
system.l2.blocked_cycles::no_targets                0                       # number of cycles access was blocked
system.l2.blocked::no_mshrs                         0                       # number of cycles access was blocked
system.l2.blocked::no_targets                       0                       # number of cycles access was blocked
system.l2.avg_blocked_cycles::no_mshrs            nan                       # average number of cycles each access was blocked
system.l2.avg_blocked_cycles::no_targets          nan                       # average number of cycles each access was blocked
system.l2.demand_mshr_hits::.cpu.data               2                       # number of demand (read+write) MSHR hits
system.l2.demand_mshr_hits::total                   2                       # number of demand (read+write) MSHR hits
system.l2.overall_mshr_hits::.cpu.data              2                       # number of overall MSHR hits
system.l2.overall_mshr_hits::total                  2                       # number of overall MSHR hits
system.l2.demand_mshr_misses::.cpu.inst           348                       # number of demand (read+write) MSHR misses
system.l2.demand_mshr_misses::.cpu.data          1183                       # number of demand (read+write) MSHR misses
system.l2.demand_mshr_misses::total              1531                       # number of demand (read+write) MSHR misses
system.l2.overall_mshr_misses::.cpu.inst          348                       # number of overall MSHR misses
system.l2.overall_mshr_misses::.cpu.data         1183                       # number of overall MSHR misses
system.l2.overall_mshr_misses::total             1531                       # number of overall MSHR misses
system.l2.demand_mshr_miss_latency::.cpu.inst     27156000                       # number of demand (read+write) MSHR miss cycles
system.l2.demand_mshr_miss_latency::.cpu.data     88856000                       # number of demand (read+write) MSHR miss cycles
system.l2.demand_mshr_miss_latency::total    116012000                       # number of demand (read+write) MSHR miss cycles
system.l2.overall_mshr_miss_latency::.cpu.inst     27156000                       # number of overall MSHR miss cycles
system.l2.overall_mshr_miss_latency::.cpu.data     88856000                       # number of overall MSHR miss cycles
system.l2.overall_mshr_miss_latency::total    116012000                       # number of overall MSHR miss cycles
system.l2.demand_mshr_miss_rate::.cpu.inst     0.974790                       # mshr miss rate for demand accesses
system.l2.demand_mshr_miss_rate::.cpu.data     0.990787                       # mshr miss rate for demand accesses
system.l2.demand_mshr_miss_rate::total       0.987105                       # mshr miss rate for demand accesses
system.l2.overall_mshr_miss_rate::.cpu.inst     0.974790                       # mshr miss rate for overall accesses
system.l2.overall_mshr_miss_rate::.cpu.data     0.990787                       # mshr miss rate for overall accesses
system.l2.overall_mshr_miss_rate::total      0.987105                       # mshr miss rate for overall accesses
system.l2.demand_avg_mshr_miss_latency::.cpu.inst 78034.482759                       # average overall mshr miss latency
system.l2.demand_avg_mshr_miss_latency::.cpu.data 75110.735418                       # average overall mshr miss latency
system.l2.demand_avg_mshr_miss_latency::total 75775.310255                       # average overall mshr miss latency
system.l2.overall_avg_mshr_miss_latency::.cpu.inst 78034.482759                       # average overall mshr miss latency
system.l2.overall_avg_mshr_miss_latency::.cpu.data 75110.735418                       # average overall mshr miss latency
system.l2.overall_avg_mshr_miss_latency::total 75775.310255                       # average overall mshr miss latency
system.l2.replacements                              0                       # number of replacements
system.l2.WritebackDirty_hits::.writebacks           22                       # number of WritebackDirty hits
system.l2.WritebackDirty_hits::total               22                       # number of WritebackDirty hits
system.l2.WritebackDirty_accesses::.writebacks           22                       # number of WritebackDirty accesses(hits+misses)
system.l2.WritebackDirty_accesses::total           22                       # number of WritebackDirty accesses(hits+misses)
system.l2.WritebackClean_hits::.writebacks           46                       # number of WritebackClean hits
system.l2.WritebackClean_hits::total               46                       # number of WritebackClean hits
system.l2.WritebackClean_accesses::.writebacks           46                       # number of WritebackClean accesses(hits+misses)
system.l2.WritebackClean_accesses::total           46                       # number of WritebackClean accesses(hits+misses)
system.l2.ReadExReq_misses::.cpu.data            1061                       # number of ReadExReq misses
system.l2.ReadExReq_misses::total                1061                       # number of ReadExReq misses
system.l2.ReadExReq_miss_latency::.cpu.data    100134000                       # number of ReadExReq miss cycles
system.l2.ReadExReq_miss_latency::total     100134000                       # number of ReadExReq miss cycles
system.l2.ReadExReq_accesses::.cpu.data          1061                       # number of ReadExReq accesses(hits+misses)
system.l2.ReadExReq_accesses::total              1061                       # number of ReadExReq accesses(hits+misses)
system.l2.ReadExReq_miss_rate::.cpu.data            1                       # miss rate for ReadExReq accesses
system.l2.ReadExReq_miss_rate::total                1                       # miss rate for ReadExReq accesses
system.l2.ReadExReq_avg_miss_latency::.cpu.data 94377.002828                       # average ReadExReq miss latency
system.l2.ReadExReq_avg_miss_latency::total 94377.002828                       # average ReadExReq miss latency
system.l2.ReadExReq_mshr_misses::.cpu.data         1061                       # number of ReadExReq MSHR misses
system.l2.ReadExReq_mshr_misses::total           1061                       # number of ReadExReq MSHR misses
system.l2.ReadExReq_mshr_miss_latency::.cpu.data     78914000                       # number of ReadExReq MSHR miss cycles
system.l2.ReadExReq_mshr_miss_latency::total     78914000                       # number of ReadExReq MSHR miss cycles
system.l2.ReadExReq_mshr_miss_rate::.cpu.data            1                       # mshr miss rate for ReadExReq accesses
system.l2.ReadExReq_mshr_miss_rate::total            1                       # mshr miss rate for ReadExReq accesses
system.l2.ReadExReq_avg_mshr_miss_latency::.cpu.data 74377.002828                       # average ReadExReq mshr miss latency
system.l2.ReadExReq_avg_mshr_miss_latency::total 74377.002828                       # average ReadExReq mshr miss latency
system.l2.ReadCleanReq_hits::.cpu.inst              9                       # number of ReadCleanReq hits
system.l2.ReadCleanReq_hits::total                  9                       # number of ReadCleanReq hits
system.l2.ReadCleanReq_misses::.cpu.inst          348                       # number of ReadCleanReq misses
system.l2.ReadCleanReq_misses::total              348                       # number of ReadCleanReq misses
system.l2.ReadCleanReq_miss_latency::.cpu.inst     34116000                       # number of ReadCleanReq miss cycles
system.l2.ReadCleanReq_miss_latency::total     34116000                       # number of ReadCleanReq miss cycles
system.l2.ReadCleanReq_accesses::.cpu.inst          357                       # number of ReadCleanReq accesses(hits+misses)
system.l2.ReadCleanReq_accesses::total            357                       # number of ReadCleanReq accesses(hits+misses)
system.l2.ReadCleanReq_miss_rate::.cpu.inst     0.974790                       # miss rate for ReadCleanReq accesses
system.l2.ReadCleanReq_miss_rate::total      0.974790                       # miss rate for ReadCleanReq accesses
system.l2.ReadCleanReq_avg_miss_latency::.cpu.inst 98034.482759                       # average ReadCleanReq miss latency
system.l2.ReadCleanReq_avg_miss_latency::total 98034.482759                       # average ReadCleanReq miss latency
system.l2.ReadCleanReq_mshr_misses::.cpu.inst          348                       # number of ReadCleanReq MSHR misses
system.l2.ReadCleanReq_mshr_misses::total          348                       # number of ReadCleanReq MSHR misses
system.l2.ReadCleanReq_mshr_miss_latency::.cpu.inst     27156000                       # number of ReadCleanReq MSHR miss cycles
system.l2.ReadCleanReq_mshr_miss_latency::total     27156000                       # number of ReadCleanReq MSHR miss cycles
system.l2.ReadCleanReq_mshr_miss_rate::.cpu.inst     0.974790                       # mshr miss rate for ReadCleanReq accesses
system.l2.ReadCleanReq_mshr_miss_rate::total     0.974790                       # mshr miss rate for ReadCleanReq accesses
system.l2.ReadCleanReq_avg_mshr_miss_latency::.cpu.inst 78034.482759                       # average ReadCleanReq mshr miss latency
system.l2.ReadCleanReq_avg_mshr_miss_latency::total 78034.482759                       # average ReadCleanReq mshr miss latency
system.l2.ReadSharedReq_hits::.cpu.data             9                       # number of ReadSharedReq hits
system.l2.ReadSharedReq_hits::total                 9                       # number of ReadSharedReq hits
system.l2.ReadSharedReq_misses::.cpu.data          124                       # number of ReadSharedReq misses
system.l2.ReadSharedReq_misses::total             124                       # number of ReadSharedReq misses
system.l2.ReadSharedReq_miss_latency::.cpu.data     12543000                       # number of ReadSharedReq miss cycles
system.l2.ReadSharedReq_miss_latency::total     12543000                       # number of ReadSharedReq miss cycles
system.l2.ReadSharedReq_accesses::.cpu.data          133                       # number of ReadSharedReq accesses(hits+misses)
system.l2.ReadSharedReq_accesses::total           133                       # number of ReadSharedReq accesses(hits+misses)
system.l2.ReadSharedReq_miss_rate::.cpu.data     0.932331                       # miss rate for ReadSharedReq accesses
system.l2.ReadSharedReq_miss_rate::total     0.932331                       # miss rate for ReadSharedReq accesses
system.l2.ReadSharedReq_avg_miss_latency::.cpu.data 101153.225806                       # average ReadSharedReq miss latency
system.l2.ReadSharedReq_avg_miss_latency::total 101153.225806                       # average ReadSharedReq miss latency
system.l2.ReadSharedReq_mshr_hits::.cpu.data            2                       # number of ReadSharedReq MSHR hits
system.l2.ReadSharedReq_mshr_hits::total            2                       # number of ReadSharedReq MSHR hits
system.l2.ReadSharedReq_mshr_misses::.cpu.data          122                       # number of ReadSharedReq MSHR misses
system.l2.ReadSharedReq_mshr_misses::total          122                       # number of ReadSharedReq MSHR misses
system.l2.ReadSharedReq_mshr_miss_latency::.cpu.data      9942000                       # number of ReadSharedReq MSHR miss cycles
system.l2.ReadSharedReq_mshr_miss_latency::total      9942000                       # number of ReadSharedReq MSHR miss cycles
system.l2.ReadSharedReq_mshr_miss_rate::.cpu.data     0.917293                       # mshr miss rate for ReadSharedReq accesses
system.l2.ReadSharedReq_mshr_miss_rate::total     0.917293                       # mshr miss rate for ReadSharedReq accesses
system.l2.ReadSharedReq_avg_mshr_miss_latency::.cpu.data 81491.803279                       # average ReadSharedReq mshr miss latency
system.l2.ReadSharedReq_avg_mshr_miss_latency::total 81491.803279                       # average ReadSharedReq mshr miss latency
system.l2.tags.pwrStateResidencyTicks::UNDEFINED    694987000                       # Cumulative time (in ticks) in various power states
system.l2.tags.tagsinuse                  1113.372144                       # Cycle average of tags in use
system.l2.tags.total_refs                        1632                       # Total number of references to valid blocks.
system.l2.tags.sampled_refs                      1531                       # Sample count of references to valid blocks.
system.l2.tags.avg_refs                      1.065970                       # Average number of references to valid blocks.
system.l2.tags.warmup_cycle                     87000                       # Cycle when the warmup percentage was hit.
system.l2.tags.occ_blocks::.cpu.inst       329.965319                       # Average occupied blocks per requestor
system.l2.tags.occ_blocks::.cpu.data       783.406825                       # Average occupied blocks per requestor
system.l2.tags.occ_percent::.cpu.inst        0.010070                       # Average percentage of cache occupancy
system.l2.tags.occ_percent::.cpu.data        0.023908                       # Average percentage of cache occupancy
system.l2.tags.occ_percent::total            0.033977                       # Average percentage of cache occupancy
system.l2.tags.occ_task_id_blocks::1024          1531                       # Occupied blocks per task id
system.l2.tags.age_task_id_blocks_1024::1           30                       # Occupied blocks per task id
system.l2.tags.age_task_id_blocks_1024::2         1501                       # Occupied blocks per task id
system.l2.tags.occ_task_id_percent::1024     0.046722                       # Percentage of cache occupancy per task id
system.l2.tags.tag_accesses                     14603                       # Number of tag accesses
system.l2.tags.data_accesses                    14603                       # Number of data accesses
system.cpu_voltage_domain.voltage                   1                       # Voltage in Volts
system.mem_ctrls.pwrStateResidencyTicks::UNDEFINED    694987000                       # Cumulative time (in ticks) in various power states
system.mem_ctrls.bytes_read::.cpu.inst          22272                       # Number of bytes read from this memory
system.mem_ctrls.bytes_read::.cpu.data          75712                       # Number of bytes read from this memory
system.mem_ctrls.bytes_read::total              97984                       # Number of bytes read from this memory
system.mem_ctrls.bytes_inst_read::.cpu.inst        22272                       # Number of instructions bytes read from this memory
system.mem_ctrls.bytes_inst_read::total         22272                       # Number of instructions bytes read from this memory
system.mem_ctrls.num_reads::.cpu.inst             348                       # Number of read requests responded to by this memory
system.mem_ctrls.num_reads::.cpu.data            1183                       # Number of read requests responded to by this memory
system.mem_ctrls.num_reads::total                1531                       # Number of read requests responded to by this memory
system.mem_ctrls.bw_read::.cpu.inst          32046643                       # Total read bandwidth from this memory (bytes/s)
system.mem_ctrls.bw_read::.cpu.data         108940167                       # Total read bandwidth from this memory (bytes/s)
system.mem_ctrls.bw_read::total             140986810                       # Total read bandwidth from this memory (bytes/s)
system.mem_ctrls.bw_inst_read::.cpu.inst     32046643                       # Instruction read bandwidth from this memory (bytes/s)
system.mem_ctrls.bw_inst_read::total         32046643                       # Instruction read bandwidth from this memory (bytes/s)
system.mem_ctrls.bw_total::.cpu.inst         32046643                       # Total bandwidth to/from this memory (bytes/s)
system.mem_ctrls.bw_total::.cpu.data        108940167                       # Total bandwidth to/from this memory (bytes/s)
system.mem_ctrls.bw_total::total            140986810                       # Total bandwidth to/from this memory (bytes/s)
system.mem_ctrls.avgPriority_.cpu.inst::samples       348.00                       # Average QoS priority value for accepted requests
system.mem_ctrls.avgPriority_.cpu.data::samples      1183.00                       # Average QoS priority value for accepted requests
system.mem_ctrls.priorityMinLatency      0.000000018750                       # per QoS priority minimum request to response latency (s)
system.mem_ctrls.priorityMaxLatency      0.000000559000                       # per QoS priority maximum request to response latency (s)
system.mem_ctrls.numReadWriteTurnArounds            0                       # Number of turnarounds from READ to WRITE
system.mem_ctrls.numWriteReadTurnArounds            0                       # Number of turnarounds from WRITE to READ
system.mem_ctrls.numStayReadState                3234                       # Number of times bus staying in READ state
system.mem_ctrls.numStayWriteState                  0                       # Number of times bus staying in WRITE state
system.mem_ctrls.readReqs                        1531                       # Number of read requests accepted
system.mem_ctrls.writeReqs                          0                       # Number of write requests accepted
system.mem_ctrls.readBursts                      1531                       # Number of DRAM read bursts, including those serviced by the write queue
system.mem_ctrls.writeBursts                        0                       # Number of DRAM write bursts, including those merged in the write queue
system.mem_ctrls.servicedByWrQ                      0                       # Number of DRAM read bursts serviced by the write queue
system.mem_ctrls.mergedWrBursts                     0                       # Number of DRAM write bursts merged with an existing one
system.mem_ctrls.neitherReadNorWriteReqs            0                       # Number of requests that are neither read nor write
system.mem_ctrls.perBankRdBursts::0               147                       # Per bank write bursts
system.mem_ctrls.perBankRdBursts::1               197                       # Per bank write bursts
system.mem_ctrls.perBankRdBursts::2               123                       # Per bank write bursts
system.mem_ctrls.perBankRdBursts::3                83                       # Per bank write bursts
system.mem_ctrls.perBankRdBursts::4                67                       # Per bank write bursts
system.mem_ctrls.perBankRdBursts::5               111                       # Per bank write bursts
system.mem_ctrls.perBankRdBursts::6                90                       # Per bank write bursts
system.mem_ctrls.perBankRdBursts::7                59                       # Per bank write bursts
system.mem_ctrls.perBankRdBursts::8                 9                       # Per bank write bursts
system.mem_ctrls.perBankRdBursts::9                22                       # Per bank write bursts
system.mem_ctrls.perBankRdBursts::10               78                       # Per bank write bursts
system.mem_ctrls.perBankRdBursts::11               96                       # Per bank write bursts
system.mem_ctrls.perBankRdBursts::12              116                       # Per bank write bursts
system.mem_ctrls.perBankRdBursts::13              122                       # Per bank write bursts
system.mem_ctrls.perBankRdBursts::14              150                       # Per bank write bursts
system.mem_ctrls.perBankRdBursts::15               61                       # Per bank write bursts
system.mem_ctrls.perBankWrBursts::0                 0                       # Per bank write bursts
system.mem_ctrls.perBankWrBursts::1                 0                       # Per bank write bursts
system.mem_ctrls.perBankWrBursts::2                 0                       # Per bank write bursts
system.mem_ctrls.perBankWrBursts::3                 0                       # Per bank write bursts
system.mem_ctrls.perBankWrBursts::4                 0                       # Per bank write bursts
system.mem_ctrls.perBankWrBursts::5                 0                       # Per bank write bursts
system.mem_ctrls.perBankWrBursts::6                 0                       # Per bank write bursts
system.mem_ctrls.perBankWrBursts::7                 0                       # Per bank write bursts
system.mem_ctrls.perBankWrBursts::8                 0                       # Per bank write bursts
system.mem_ctrls.perBankWrBursts::9                 0                       # Per bank write bursts
system.mem_ctrls.perBankWrBursts::10                0                       # Per bank write bursts
system.mem_ctrls.perBankWrBursts::11                0                       # Per bank write bursts
system.mem_ctrls.perBankWrBursts::12                0                       # Per bank write bursts
system.mem_ctrls.perBankWrBursts::13                0                       # Per bank write bursts
system.mem_ctrls.perBankWrBursts::14                0                       # Per bank write bursts
system.mem_ctrls.perBankWrBursts::15                0                       # Per bank write bursts
system.mem_ctrls.avgRdQLen                       1.07                       # Average read queue length when enqueuing
system.mem_ctrls.avgWrQLen                       0.00                       # Average write queue length when enqueuing
system.mem_ctrls.totQLat                      8740500                       # Total ticks spent queuing
system.mem_ctrls.totBusLat                    7655000                       # Total ticks spent in databus transfers
system.mem_ctrls.totMemAccLat                37446750                       # Total ticks spent from burst creation until serviced by the DRAM
system.mem_ctrls.avgQLat                      5709.01                       # Average queueing delay per DRAM burst
system.mem_ctrls.avgBusLat                    5000.00                       # Average bus latency per DRAM burst
system.mem_ctrls.avgMemAccLat                24459.01                       # Average memory access latency per DRAM burst
system.mem_ctrls.numRdRetry                         0                       # Number of times read queue was full causing retry
system.mem_ctrls.numWrRetry                         0                       # Number of times write queue was full causing retry
system.mem_ctrls.readRowHits                     1194                       # Number of row buffer hits during reads
system.mem_ctrls.writeRowHits                       0                       # Number of row buffer hits during writes
system.mem_ctrls.readRowHitRate                 77.99                       # Row buffer hit rate for reads
system.mem_ctrls.writeRowHitRate                  nan                       # Row buffer hit rate for writes
system.mem_ctrls.readPktSize::0                     0                       # Read request sizes (log2)
system.mem_ctrls.readPktSize::1                     0                       # Read request sizes (log2)
system.mem_ctrls.readPktSize::2                     0                       # Read request sizes (log2)
system.mem_ctrls.readPktSize::3                     0                       # Read request sizes (log2)
system.mem_ctrls.readPktSize::4                     0                       # Read request sizes (log2)
system.mem_ctrls.readPktSize::5                     0                       # Read request sizes (log2)
system.mem_ctrls.readPktSize::6                  1531                       # Read request sizes (log2)
system.mem_ctrls.writePktSize::0                    0                       # Write request sizes (log2)
system.mem_ctrls.writePktSize::1                    0                       # Write request sizes (log2)
system.mem_ctrls.writePktSize::2                    0                       # Write request sizes (log2)
system.mem_ctrls.writePktSize::3                    0                       # Write request sizes (log2)
system.mem_ctrls.writePktSize::4                    0                       # Write request sizes (log2)
system.mem_ctrls.writePktSize::5                    0                       # Write request sizes (log2)
system.mem_ctrls.writePktSize::6                    0                       # Write request sizes (log2)
system.mem_ctrls.rdQLenPdf::0                    1386                       # What read queue length does an incoming req see
system.mem_ctrls.rdQLenPdf::1                     139                       # What read queue length does an incoming req see
system.mem_ctrls.rdQLenPdf::2                       6                       # What read queue length does an incoming req see
system.mem_ctrls.rdQLenPdf::3                       0                       # What read queue length does an incoming req see
system.mem_ctrls.rdQLenPdf::4                       0                       # What read queue length does an incoming req see
system.mem_ctrls.rdQLenPdf::5                       0                       # What read queue length does an incoming req see
system.mem_ctrls.rdQLenPdf::6                       0                       # What read queue length does an incoming req see
system.mem_ctrls.rdQLenPdf::7                       0                       # What read queue length does an incoming req see
system.mem_ctrls.rdQLenPdf::8                       0                       # What read queue length does an incoming req see
system.mem_ctrls.rdQLenPdf::9                       0                       # What read queue length does an incoming req see
system.mem_ctrls.rdQLenPdf::10                      0                       # What read queue length does an incoming req see
system.mem_ctrls.rdQLenPdf::11                      0                       # What read queue length does an incoming req see
system.mem_ctrls.rdQLenPdf::12                      0                       # What read queue length does an incoming req see
system.mem_ctrls.rdQLenPdf::13                      0                       # What read queue length does an incoming req see
system.mem_ctrls.rdQLenPdf::14                      0                       # What read queue length does an incoming req see
system.mem_ctrls.rdQLenPdf::15                      0                       # What read queue length does an incoming req see
system.mem_ctrls.rdQLenPdf::16                      0                       # What read queue length does an incoming req see
system.mem_ctrls.rdQLenPdf::17                      0                       # What read queue length does an incoming req see
system.mem_ctrls.rdQLenPdf::18                      0                       # What read queue length does an incoming req see
system.mem_ctrls.rdQLenPdf::19                      0                       # What read queue length does an incoming req see
system.mem_ctrls.rdQLenPdf::20                      0                       # What read queue length does an incoming req see
system.mem_ctrls.rdQLenPdf::21                      0                       # What read queue length does an incoming req see
system.mem_ctrls.rdQLenPdf::22                      0                       # What read queue length does an incoming req see
system.mem_ctrls.rdQLenPdf::23                      0                       # What read queue length does an incoming req see
system.mem_ctrls.rdQLenPdf::24                      0                       # What read queue length does an incoming req see
system.mem_ctrls.rdQLenPdf::25                      0                       # What read queue length does an incoming req see
system.mem_ctrls.rdQLenPdf::26                      0                       # What read queue length does an incoming req see
system.mem_ctrls.rdQLenPdf::27                      0                       # What read queue length does an incoming req see
system.mem_ctrls.rdQLenPdf::28                      0                       # What read queue length does an incoming req see
system.mem_ctrls.rdQLenPdf::29                      0                       # What read queue length does an incoming req see
system.mem_ctrls.rdQLenPdf::30                      0                       # What read queue length does an incoming req see
system.mem_ctrls.rdQLenPdf::31                      0                       # What read queue length does an incoming req see
system.mem_ctrls.wrQLenPdf::0                       0                       # What write queue length does an incoming req see
system.mem_ctrls.wrQLenPdf::1                       0                       # What write queue length does an incoming req see
system.mem_ctrls.wrQLenPdf::2                       0                       # What write queue length does an incoming req see
system.mem_ctrls.wrQLenPdf::3                       0                       # What write queue length does an incoming req see
system.mem_ctrls.wrQLenPdf::4                       0                       # What write queue length does an incoming req see
system.mem_ctrls.wrQLenPdf::5                       0                       # What write queue length does an incoming req see
system.mem_ctrls.wrQLenPdf::6                       0                       # What write queue length does an incoming req see
system.mem_ctrls.wrQLenPdf::7                       0                       # What write queue length does an incoming req see
system.mem_ctrls.wrQLenPdf::8                       0                       # What write queue length does an incoming req see
system.mem_ctrls.wrQLenPdf::9                       0                       # What write queue length does an incoming req see
system.mem_ctrls.wrQLenPdf::10                      0                       # What write queue length does an incoming req see
system.mem_ctrls.wrQLenPdf::11                      0                       # What write queue length does an incoming req see
system.mem_ctrls.wrQLenPdf::12                      0                       # What write queue length does an incoming req see
system.mem_ctrls.wrQLenPdf::13                      0                       # What write queue length does an incoming req see
system.mem_ctrls.wrQLenPdf::14                      0                       # What write queue length does an incoming req see
system.mem_ctrls.wrQLenPdf::15                      0                       # What write queue length does an incoming req see
system.mem_ctrls.wrQLenPdf::16                      0                       # What write queue length does an incoming req see
system.mem_ctrls.wrQLenPdf::17                      0                       # What write queue length does an incoming req see
system.mem_ctrls.wrQLenPdf::18                      0                       # What write queue length does an incoming req see
system.mem_ctrls.wrQLenPdf::19                      0                       # What write queue length does an incoming req see
system.mem_ctrls.wrQLenPdf::20                      0                       # What write queue length does an incoming req see
system.mem_ctrls.wrQLenPdf::21                      0                       # What write queue length does an incoming req see
system.mem_ctrls.wrQLenPdf::22                      0                       # What write queue length does an incoming req see
system.mem_ctrls.wrQLenPdf::23                      0                       # What write queue length does an incoming req see
system.mem_ctrls.wrQLenPdf::24                      0                       # What write queue length does an incoming req see
system.mem_ctrls.wrQLenPdf::25                      0                       # What write queue length does an incoming req see
system.mem_ctrls.wrQLenPdf::26                      0                       # What write queue length does an incoming req see
system.mem_ctrls.wrQLenPdf::27                      0                       # What write queue length does an incoming req see
system.mem_ctrls.wrQLenPdf::28                      0                       # What write queue length does an incoming req see
system.mem_ctrls.wrQLenPdf::29                      0                       # What write queue length does an incoming req see
system.mem_ctrls.wrQLenPdf::30                      0                       # What write queue length does an incoming req see
system.mem_ctrls.wrQLenPdf::31                      0                       # What write queue length does an incoming req see
system.mem_ctrls.wrQLenPdf::32                      0                       # What write queue length does an incoming req see
system.mem_ctrls.wrQLenPdf::33                      0                       # What write queue length does an incoming req see
system.mem_ctrls.wrQLenPdf::34                      0                       # What write queue length does an incoming req see
system.mem_ctrls.wrQLenPdf::35                      0                       # What write queue length does an incoming req see
system.mem_ctrls.wrQLenPdf::36                      0                       # What write queue length does an incoming req see
system.mem_ctrls.wrQLenPdf::37                      0                       # What write queue length does an incoming req see
system.mem_ctrls.wrQLenPdf::38                      0                       # What write queue length does an incoming req see
system.mem_ctrls.wrQLenPdf::39                      0                       # What write queue length does an incoming req see
system.mem_ctrls.wrQLenPdf::40                      0                       # What write queue length does an incoming req see
system.mem_ctrls.wrQLenPdf::41                      0                       # What write queue length does an incoming req see
system.mem_ctrls.wrQLenPdf::42                      0                       # What write queue length does an incoming req see
system.mem_ctrls.wrQLenPdf::43                      0                       # What write queue length does an incoming req see
system.mem_ctrls.wrQLenPdf::44                      0                       # What write queue length does an incoming req see
system.mem_ctrls.wrQLenPdf::45                      0                       # What write queue length does an incoming req see
system.mem_ctrls.wrQLenPdf::46                      0                       # What write queue length does an incoming req see
system.mem_ctrls.wrQLenPdf::47                      0                       # What write queue length does an incoming req see
system.mem_ctrls.wrQLenPdf::48                      0                       # What write queue length does an incoming req see
system.mem_ctrls.wrQLenPdf::49                      0                       # What write queue length does an incoming req see
system.mem_ctrls.wrQLenPdf::50                      0                       # What write queue length does an incoming req see
system.mem_ctrls.wrQLenPdf::51                      0                       # What write queue length does an incoming req see
system.mem_ctrls.wrQLenPdf::52                      0                       # What write queue length does an incoming req see
system.mem_ctrls.wrQLenPdf::53                      0                       # What write queue length does an incoming req see
system.mem_ctrls.wrQLenPdf::54                      0                       # What write queue length does an incoming req see
system.mem_ctrls.wrQLenPdf::55                      0                       # What write queue length does an incoming req see
system.mem_ctrls.wrQLenPdf::56                      0                       # What write queue length does an incoming req see
system.mem_ctrls.wrQLenPdf::57                      0                       # What write queue length does an incoming req see
system.mem_ctrls.wrQLenPdf::58                      0                       # What write queue length does an incoming req see
system.mem_ctrls.wrQLenPdf::59                      0                       # What write queue length does an incoming req see
system.mem_ctrls.wrQLenPdf::60                      0                       # What write queue length does an incoming req see
system.mem_ctrls.wrQLenPdf::61                      0                       # What write queue length does an incoming req see
system.mem_ctrls.wrQLenPdf::62                      0                       # What write queue length does an incoming req see
system.mem_ctrls.wrQLenPdf::63                      0                       # What write queue length does an incoming req see
system.mem_ctrls.bytesPerActivate::samples          337                       # Bytes accessed per row activation
system.mem_ctrls.bytesPerActivate::mean    290.753709                       # Bytes accessed per row activation
system.mem_ctrls.bytesPerActivate::gmean   190.624262                       # Bytes accessed per row activation
system.mem_ctrls.bytesPerActivate::stdev   243.094366                       # Bytes accessed per row activation
system.mem_ctrls.bytesPerActivate::0-127          125     37.09%     37.09% # Bytes accessed per row activation
system.mem_ctrls.bytesPerActivate::128-255           55     16.32%     53.41% # Bytes accessed per row activation
system.mem_ctrls.bytesPerActivate::256-383           38     11.28%     64.69% # Bytes accessed per row activation
system.mem_ctrls.bytesPerActivate::384-511           13      3.86%     68.55% # Bytes accessed per row activation
system.mem_ctrls.bytesPerActivate::512-639           74     21.96%     90.50% # Bytes accessed per row activation
system.mem_ctrls.bytesPerActivate::640-767           24      7.12%     97.63% # Bytes accessed per row activation
system.mem_ctrls.bytesPerActivate::768-895            3      0.89%     98.52% # Bytes accessed per row activation
system.mem_ctrls.bytesPerActivate::1024-1151            5      1.48%    100.00% # Bytes accessed per row activation
system.mem_ctrls.bytesPerActivate::total          337                       # Bytes accessed per row activation
system.mem_ctrls.bytesReadDRAM                  97984                       # Total number of bytes read from DRAM
system.mem_ctrls.bytesReadWrQ                       0                       # Total number of bytes read from write queue
system.mem_ctrls.bytesWritten                       0                       # Total number of bytes written to DRAM
system.mem_ctrls.bytesReadSys                   97984                       # Total read bytes from the system interface side
system.mem_ctrls.bytesWrittenSys                    0                       # Total written bytes from the system interface side
system.mem_ctrls.avgRdBW                       140.99                       # Average DRAM read bandwidth in MiByte/s
system.mem_ctrls.avgWrBW                         0.00                       # Average achieved write bandwidth in MiByte/s
system.mem_ctrls.avgRdBWSys                    140.99                       # Average system read bandwidth in MiByte/s
system.mem_ctrls.avgWrBWSys                      0.00                       # Average system write bandwidth in MiByte/s
system.mem_ctrls.peakBW                      12800.00                       # Theoretical peak bandwidth in MiByte/s
system.mem_ctrls.busUtil                         1.10                       # Data bus utilization in percentage
system.mem_ctrls.busUtilRead                     1.10                       # Data bus utilization in percentage for reads
system.mem_ctrls.busUtilWrite                    0.00                       # Data bus utilization in percentage for writes
system.mem_ctrls.totGap                     684020000                       # Total gap between requests
system.mem_ctrls.avgGap                     446779.88                       # Average gap between requests
system.mem_ctrls.masterReadBytes::.cpu.inst        22272                       # Per-master bytes read from memory
system.mem_ctrls.masterReadBytes::.cpu.data        75712                       # Per-master bytes read from memory
system.mem_ctrls.masterReadRate::.cpu.inst 32046642.599070198834                       # Per-master bytes read from memory rate (Bytes/sec)
system.mem_ctrls.masterReadRate::.cpu.data 108940167.226149559021                       # Per-master bytes read from memory rate (Bytes/sec)
system.mem_ctrls.masterReadAccesses::.cpu.inst          348                       # Per-master read serviced memory accesses
system.mem_ctrls.masterReadAccesses::.cpu.data         1183                       # Per-master read serviced memory accesses
system.mem_ctrls.masterReadTotalLat::.cpu.inst      9294000                       # Per-master read total memory access latency
system.mem_ctrls.masterReadTotalLat::.cpu.data     28152750                       # Per-master read total memory access latency
system.mem_ctrls.masterReadAvgLat::.cpu.inst     26706.90                       # Per-master read average memory access latency
system.mem_ctrls.masterReadAvgLat::.cpu.data     23797.76                       # Per-master read average memory access latency
system.mem_ctrls.pageHitRate                    77.99                       # Row buffer hit rate, read and write combined
system.mem_ctrls.rank1.actEnergy              1006740                       # Energy for activate commands per rank (pJ)
system.mem_ctrls.rank1.preEnergy               535095                       # Energy for precharge commands per rank (pJ)
system.mem_ctrls.rank1.readEnergy             4669560                       # Energy for read commands per rank (pJ)
system.mem_ctrls.rank1.writeEnergy                  0                       # Energy for write commands per rank (pJ)
system.mem_ctrls.rank1.refreshEnergy     54702960.000000                       # Energy for refresh commands per rank (pJ)
system.mem_ctrls.rank1.actBackEnergy        181314150                       # Energy for active background per rank (pJ)
[...]
system.cpu.icache.ReadReq_miss_rate::.cpu.inst     0.010010                       # miss rate for ReadReq accesses
system.cpu.icache.ReadReq_miss_rate::total     0.010010                       # miss rate for ReadReq accesses
system.cpu.icache.ReadReq_avg_miss_latency::.cpu.inst 101137.254902                       # average ReadReq miss latency
system.cpu.icache.ReadReq_avg_miss_latency::total 101137.254902                       # average ReadReq miss latency
system.cpu.icache.ReadReq_mshr_misses::.cpu.inst          357                       # number of ReadReq MSHR misses
system.cpu.icache.ReadReq_mshr_misses::total          357                       # number of ReadReq MSHR misses
system.cpu.icache.ReadReq_mshr_miss_latency::.cpu.inst     35392000                       # number of ReadReq MSHR miss cycles
system.cpu.icache.ReadReq_mshr_miss_latency::total     35392000                       # number of ReadReq MSHR miss cycles
system.cpu.icache.ReadReq_mshr_miss_rate::.cpu.inst     0.010010                       # mshr miss rate for ReadReq accesses
system.cpu.icache.ReadReq_mshr_miss_rate::total     0.010010                       # mshr miss rate for ReadReq accesses
system.cpu.icache.ReadReq_avg_mshr_miss_latency::.cpu.inst 99137.254902                       # average ReadReq mshr miss latency
system.cpu.icache.ReadReq_avg_mshr_miss_latency::total 99137.254902                       # average ReadReq mshr miss latency
system.cpu.icache.tags.pwrStateResidencyTicks::UNDEFINED    694987000                       # Cumulative time (in ticks) in various power states
system.cpu.icache.tags.tagsinuse           291.600522                       # Cycle average of tags in use
system.cpu.icache.tags.total_refs               35664                       # Total number of references to valid blocks.
system.cpu.icache.tags.sampled_refs               357                       # Sample count of references to valid blocks.
system.cpu.icache.tags.avg_refs             99.899160                       # Average number of references to valid blocks.
system.cpu.icache.tags.warmup_cycle            108000                       # Cycle when the warmup percentage was hit.
system.cpu.icache.tags.occ_blocks::.cpu.inst   291.600522                       # Average occupied blocks per requestor
system.cpu.icache.tags.occ_percent::.cpu.inst     0.569532                       # Average percentage of cache occupancy
system.cpu.icache.tags.occ_percent::total     0.569532                       # Average percentage of cache occupancy
system.cpu.icache.tags.occ_task_id_blocks::1024          308                       # Occupied blocks per task id
system.cpu.icache.tags.age_task_id_blocks_1024::2          308                       # Occupied blocks per task id
system.cpu.icache.tags.occ_task_id_percent::1024     0.601562                       # Percentage of cache occupancy per task id
system.cpu.icache.tags.tag_accesses             71685                       # Number of tag accesses
system.cpu.icache.tags.data_accesses            71685                       # Number of data accesses
system.cpu.dtb.walker.pwrStateResidencyTicks::UNDEFINED    694987000                       # Cumulative time (in ticks) in various power states
system.cpu.dtb.stage2_mmu.stage2_tlb.walker.pwrStateResidencyTicks::UNDEFINED    694987000                       # Cumulative time (in ticks) in various power states
system.cpu.dcache.pwrStateResidencyTicks::UNDEFINED    694987000                       # Cumulative time (in ticks) in various power states
system.cpu.dcache.demand_hits::.cpu.data       225941                       # number of demand (read+write) hits
system.cpu.dcache.demand_hits::total           225941                       # number of demand (read+write) hits
system.cpu.dcache.overall_hits::.cpu.data       225960                       # number of overall hits
system.cpu.dcache.overall_hits::total          225960                       # number of overall hits
system.cpu.dcache.demand_misses::.cpu.data         1243                       # number of demand (read+write) misses
system.cpu.dcache.demand_misses::total           1243                       # number of demand (read+write) misses
system.cpu.dcache.overall_misses::.cpu.data         1254                       # number of overall misses
system.cpu.dcache.overall_misses::total          1254                       # number of overall misses
system.cpu.dcache.demand_miss_latency::.cpu.data    123606000                       # number of demand (read+write) miss cycles
system.cpu.dcache.demand_miss_latency::total    123606000                       # number of demand (read+write) miss cycles
system.cpu.dcache.overall_miss_latency::.cpu.data    123606000                       # number of overall miss cycles
system.cpu.dcache.overall_miss_latency::total    123606000                       # number of overall miss cycles
system.cpu.dcache.demand_accesses::.cpu.data       227184                       # number of demand (read+write) accesses
system.cpu.dcache.demand_accesses::total       227184                       # number of demand (read+write) accesses
system.cpu.dcache.overall_accesses::.cpu.data       227214                       # number of overall (read+write) accesses
system.cpu.dcache.overall_accesses::total       227214                       # number of overall (read+write) accesses
system.cpu.dcache.demand_miss_rate::.cpu.data     0.005471                       # miss rate for demand accesses
system.cpu.dcache.demand_miss_rate::total     0.005471                       # miss rate for demand accesses
system.cpu.dcache.overall_miss_rate::.cpu.data     0.005519                       # miss rate for overall accesses
system.cpu.dcache.overall_miss_rate::total     0.005519                       # miss rate for overall accesses
system.cpu.dcache.demand_avg_miss_latency::.cpu.data 99441.673371                       # average overall miss latency
system.cpu.dcache.demand_avg_miss_latency::total 99441.673371                       # average overall miss latency
system.cpu.dcache.overall_avg_miss_latency::.cpu.data 98569.377990                       # average overall miss latency
system.cpu.dcache.overall_avg_miss_latency::total 98569.377990                       # average overall miss latency
system.cpu.dcache.blocked_cycles::no_mshrs            0                       # number of cycles access was blocked
system.cpu.dcache.blocked_cycles::no_targets            0                       # number of cycles access was blocked
system.cpu.dcache.blocked::no_mshrs                 0                       # number of cycles access was blocked
system.cpu.dcache.blocked::no_targets               0                       # number of cycles access was blocked
system.cpu.dcache.avg_blocked_cycles::no_mshrs          nan                       # average number of cycles each access was blocked
system.cpu.dcache.avg_blocked_cycles::no_targets          nan                       # average number of cycles each access was blocked
system.cpu.dcache.writebacks::.writebacks           22                       # number of writebacks
system.cpu.dcache.writebacks::total                22                       # number of writebacks
system.cpu.dcache.demand_mshr_hits::.cpu.data           57                       # number of demand (read+write) MSHR hits
system.cpu.dcache.demand_mshr_hits::total           57                       # number of demand (read+write) MSHR hits
system.cpu.dcache.overall_mshr_hits::.cpu.data           57                       # number of overall MSHR hits
system.cpu.dcache.overall_mshr_hits::total           57                       # number of overall MSHR hits
system.cpu.dcache.demand_mshr_misses::.cpu.data         1186                       # number of demand (read+write) MSHR misses
system.cpu.dcache.demand_mshr_misses::total         1186                       # number of demand (read+write) MSHR misses
system.cpu.dcache.overall_mshr_misses::.cpu.data         1194                       # number of overall MSHR misses
system.cpu.dcache.overall_mshr_misses::total         1194                       # number of overall MSHR misses
system.cpu.dcache.demand_mshr_miss_latency::.cpu.data    115638000                       # number of demand (read+write) MSHR miss cycles
system.cpu.dcache.demand_mshr_miss_latency::total    115638000                       # number of demand (read+write) MSHR miss cycles
system.cpu.dcache.overall_mshr_miss_latency::.cpu.data    116472000                       # number of overall MSHR miss cycles
system.cpu.dcache.overall_mshr_miss_latency::total    116472000                       # number of overall MSHR miss cycles
system.cpu.dcache.demand_mshr_miss_rate::.cpu.data     0.005220                       # mshr miss rate for demand accesses
system.cpu.dcache.demand_mshr_miss_rate::total     0.005220                       # mshr miss rate for demand accesses
system.cpu.dcache.overall_mshr_miss_rate::.cpu.data     0.005255                       # mshr miss rate for overall accesses
system.cpu.dcache.overall_mshr_miss_rate::total     0.005255                       # mshr miss rate for overall accesses
system.cpu.dcache.demand_avg_mshr_miss_latency::.cpu.data 97502.529511                       # average overall mshr miss latency
system.cpu.dcache.demand_avg_mshr_miss_latency::total 97502.529511                       # average overall mshr miss latency
system.cpu.dcache.overall_avg_mshr_miss_latency::.cpu.data 97547.738693                       # average overall mshr miss latency
system.cpu.dcache.overall_avg_mshr_miss_latency::total 97547.738693                       # average overall mshr miss latency
system.cpu.dcache.replacements                     38                       # number of replacements
system.cpu.dcache.ReadReq_hits::.cpu.data       198835                       # number of ReadReq hits
system.cpu.dcache.ReadReq_hits::total          198835                       # number of ReadReq hits
system.cpu.dcache.ReadReq_misses::.cpu.data          130                       # number of ReadReq misses
system.cpu.dcache.ReadReq_misses::total           130                       # number of ReadReq misses
system.cpu.dcache.ReadReq_miss_latency::.cpu.data     13010000                       # number of ReadReq miss cycles
system.cpu.dcache.ReadReq_miss_latency::total     13010000                       # number of ReadReq miss cycles
system.cpu.dcache.ReadReq_accesses::.cpu.data       198965                       # number of ReadReq accesses(hits+misses)
system.cpu.dcache.ReadReq_accesses::total       198965                       # number of ReadReq accesses(hits+misses)
system.cpu.dcache.ReadReq_miss_rate::.cpu.data     0.000653                       # miss rate for ReadReq accesses
system.cpu.dcache.ReadReq_miss_rate::total     0.000653                       # miss rate for ReadReq accesses
system.cpu.dcache.ReadReq_avg_miss_latency::.cpu.data 100076.923077                       # average ReadReq miss latency
system.cpu.dcache.ReadReq_avg_miss_latency::total 100076.923077                       # average ReadReq miss latency
system.cpu.dcache.ReadReq_mshr_hits::.cpu.data            5                       # number of ReadReq MSHR hits
system.cpu.dcache.ReadReq_mshr_hits::total            5                       # number of ReadReq MSHR hits
system.cpu.dcache.ReadReq_mshr_misses::.cpu.data          125                       # number of ReadReq MSHR misses
system.cpu.dcache.ReadReq_mshr_misses::total          125                       # number of ReadReq MSHR misses
system.cpu.dcache.ReadReq_mshr_miss_latency::.cpu.data     12318000                       # number of ReadReq MSHR miss cycles
system.cpu.dcache.ReadReq_mshr_miss_latency::total     12318000                       # number of ReadReq MSHR miss cycles
system.cpu.dcache.ReadReq_mshr_miss_rate::.cpu.data     0.000628                       # mshr miss rate for ReadReq accesses
system.cpu.dcache.ReadReq_mshr_miss_rate::total     0.000628                       # mshr miss rate for ReadReq accesses
system.cpu.dcache.ReadReq_avg_mshr_miss_latency::.cpu.data        98544                       # average ReadReq mshr miss latency
system.cpu.dcache.ReadReq_avg_mshr_miss_latency::total        98544                       # average ReadReq mshr miss latency
system.cpu.dcache.WriteReq_hits::.cpu.data        27106                       # number of WriteReq hits
system.cpu.dcache.WriteReq_hits::total          27106                       # number of WriteReq hits
system.cpu.dcache.WriteReq_misses::.cpu.data         1113                       # number of WriteReq misses
system.cpu.dcache.WriteReq_misses::total         1113                       # number of WriteReq misses
system.cpu.dcache.WriteReq_miss_latency::.cpu.data    110596000                       # number of WriteReq miss cycles
system.cpu.dcache.WriteReq_miss_latency::total    110596000                       # number of WriteReq miss cycles
system.cpu.dcache.WriteReq_accesses::.cpu.data        28219                       # number of WriteReq accesses(hits+misses)
system.cpu.dcache.WriteReq_accesses::total        28219                       # number of WriteReq accesses(hits+misses)
system.cpu.dcache.WriteReq_miss_rate::.cpu.data     0.039442                       # miss rate for WriteReq accesses
system.cpu.dcache.WriteReq_miss_rate::total     0.039442                       # miss rate for WriteReq accesses
system.cpu.dcache.WriteReq_avg_miss_latency::.cpu.data 99367.475292                       # average WriteReq miss latency
system.cpu.dcache.WriteReq_avg_miss_latency::total 99367.475292                       # average WriteReq miss latency
system.cpu.dcache.WriteReq_mshr_hits::.cpu.data           52                       # number of WriteReq MSHR hits
system.cpu.dcache.WriteReq_mshr_hits::total           52                       # number of WriteReq MSHR hits
system.cpu.dcache.WriteReq_mshr_misses::.cpu.data         1061                       # number of WriteReq MSHR misses
system.cpu.dcache.WriteReq_mshr_misses::total         1061                       # number of WriteReq MSHR misses
system.cpu.dcache.WriteReq_mshr_miss_latency::.cpu.data    103320000                       # number of WriteReq MSHR miss cycles
system.cpu.dcache.WriteReq_mshr_miss_latency::total    103320000                       # number of WriteReq MSHR miss cycles
system.cpu.dcache.WriteReq_mshr_miss_rate::.cpu.data     0.037599                       # mshr miss rate for WriteReq accesses
system.cpu.dcache.WriteReq_mshr_miss_rate::total     0.037599                       # mshr miss rate for WriteReq accesses
system.cpu.dcache.WriteReq_avg_mshr_miss_latency::.cpu.data 97379.830349                       # average WriteReq mshr miss latency
system.cpu.dcache.WriteReq_avg_mshr_miss_latency::total 97379.830349                       # average WriteReq mshr miss latency
system.cpu.dcache.SoftPFReq_hits::.cpu.data           19                       # number of SoftPFReq hits
system.cpu.dcache.SoftPFReq_hits::total            19                       # number of SoftPFReq hits
system.cpu.dcache.SoftPFReq_misses::.cpu.data           11                       # number of SoftPFReq misses
system.cpu.dcache.SoftPFReq_misses::total           11                       # number of SoftPFReq misses
system.cpu.dcache.SoftPFReq_accesses::.cpu.data           30                       # number of SoftPFReq accesses(hits+misses)
system.cpu.dcache.SoftPFReq_accesses::total           30                       # number of SoftPFReq accesses(hits+misses)
system.cpu.dcache.SoftPFReq_miss_rate::.cpu.data     0.366667                       # miss rate for SoftPFReq accesses
system.cpu.dcache.SoftPFReq_miss_rate::total     0.366667                       # miss rate for SoftPFReq accesses
system.cpu.dcache.SoftPFReq_mshr_misses::.cpu.data            8                       # number of SoftPFReq MSHR misses
system.cpu.dcache.SoftPFReq_mshr_misses::total            8                       # number of SoftPFReq MSHR misses
system.cpu.dcache.SoftPFReq_mshr_miss_latency::.cpu.data       834000                       # number of SoftPFReq MSHR miss cycles
system.cpu.dcache.SoftPFReq_mshr_miss_latency::total       834000                       # number of SoftPFReq MSHR miss cycles
system.cpu.dcache.SoftPFReq_mshr_miss_rate::.cpu.data     0.266667                       # mshr miss rate for SoftPFReq accesses
system.cpu.dcache.SoftPFReq_mshr_miss_rate::total     0.266667                       # mshr miss rate for SoftPFReq accesses
system.cpu.dcache.SoftPFReq_avg_mshr_miss_latency::.cpu.data       104250                       # average SoftPFReq mshr miss latency
system.cpu.dcache.SoftPFReq_avg_mshr_miss_latency::total       104250                       # average SoftPFReq mshr miss latency
system.cpu.dcache.LoadLockedReq_hits::.cpu.data            4                       # number of LoadLockedReq hits
system.cpu.dcache.LoadLockedReq_hits::total            4                       # number of LoadLockedReq hits
system.cpu.dcache.LoadLockedReq_accesses::.cpu.data            4                       # number of LoadLockedReq accesses(hits+misses)
system.cpu.dcache.LoadLockedReq_accesses::total            4                       # number of LoadLockedReq accesses(hits+misses)
system.cpu.dcache.StoreCondReq_hits::.cpu.data            4                       # number of StoreCondReq hits
system.cpu.dcache.StoreCondReq_hits::total            4                       # number of StoreCondReq hits
system.cpu.dcache.StoreCondReq_accesses::.cpu.data            4                       # number of StoreCondReq accesses(hits+misses)
system.cpu.dcache.StoreCondReq_accesses::total            4                       # number of StoreCondReq accesses(hits+misses)
system.cpu.dcache.tags.pwrStateResidencyTicks::UNDEFINED    694987000                       # Cumulative time (in ticks) in various power states
system.cpu.dcache.tags.tagsinuse           777.332037                       # Cycle average of tags in use
system.cpu.dcache.tags.total_refs              227162                       # Total number of references to valid blocks.
system.cpu.dcache.tags.sampled_refs              1194                       # Sample count of references to valid blocks.
system.cpu.dcache.tags.avg_refs            190.252931                       # Average number of references to valid blocks.
system.cpu.dcache.tags.warmup_cycle            223000                       # Cycle when the warmup percentage was hit.
system.cpu.dcache.tags.occ_blocks::.cpu.data   777.332037                       # Average occupied blocks per requestor
system.cpu.dcache.tags.occ_percent::.cpu.data     0.379557                       # Average percentage of cache occupancy
system.cpu.dcache.tags.occ_percent::total     0.379557                       # Average percentage of cache occupancy
system.cpu.dcache.tags.occ_task_id_blocks::1024         1156                       # Occupied blocks per task id
system.cpu.dcache.tags.age_task_id_blocks_1024::1           30                       # Occupied blocks per task id
system.cpu.dcache.tags.age_task_id_blocks_1024::2         1126                       # Occupied blocks per task id
system.cpu.dcache.tags.occ_task_id_percent::1024     0.564453                       # Percentage of cache occupancy per task id
system.cpu.dcache.tags.tag_accesses            455638                       # Number of tag accesses
system.cpu.dcache.tags.data_accesses           455638                       # Number of data accesses
system.cpu.itb.walker.pwrStateResidencyTicks::UNDEFINED    694987000                       # Cumulative time (in ticks) in various power states
system.cpu.itb.stage2_mmu.stage2_tlb.walker.pwrStateResidencyTicks::UNDEFINED    694987000                       # Cumulative time (in ticks) in various power states

---------- End Simulation Statistics   ----------
